59445439
  -OEChem-04302123543D

 24 24  0     1  0  0  0  0  0999 V2000
    0.6678   -1.1586    0.2571 O   0  0  0  0  0  0  0  0  0  0  0  0
    0.8871    2.4483   -0.3387 O   0  0  0  0  0  0  0  0  0  0  0  0
   -1.8622    2.0693    0.4695 O   0  0  0  0  0  0  0  0  0  0  0  0
   -2.8609   -0.5414   -0.4619 O   0  0  0  0  0  0  0  0  0  0  0  0
   -1.1224   -2.6552    0.2574 O   0  0  0  0  0  0  0  0  0  0  0  0
    3.3741   -0.9720   -0.1865 O   0  0  0  0  0  0  0  0  0  0  0  0
    0.3727    1.2470    0.2300 C   0  0  1  0  0  0  0  0  0  0  0  0
   -1.0855    1.0710   -0.1940 C   0  0  1  0  0  0  0  0  0  0  0  0
    1.2212    0.0621   -0.2375 C   0  0  1  0  0  0  0  0  0  0  0  0
   -1.6082   -0.3151    0.1839 C   0  0  2  0  0  0  0  0  0  0  0  0
   -0.6388   -1.4132   -0.2533 C   0  0  1  0  0  0  0  0  0  0  0  0
    2.6551    0.1576    0.2740 C   0  0  0  0  0  0  0  0  0  0  0  0
    0.4293    1.3511    1.3205 H   0  0  0  0  0  0  0  0  0  0  0  0
   -1.2050    1.2553   -1.2681 H   0  0  0  0  0  0  0  0  0  0  0  0
    1.2550    0.0098   -1.3343 H   0  0  0  0  0  0  0  0  0  0  0  0
   -1.7937   -0.3745    1.2630 H   0  0  0  0  0  0  0  0  0  0  0  0
   -0.6049   -1.4995   -1.3469 H   0  0  0  0  0  0  0  0  0  0  0  0
    2.6804    0.1452    1.3688 H   0  0  0  0  0  0  0  0  0  0  0  0
    3.1518    1.0624   -0.0892 H   0  0  0  0  0  0  0  0  0  0  0  0
    0.8540    2.3607   -1.3066 H   0  0  0  0  0  0  0  0  0  0  0  0
   -1.7901    1.9213    1.4279 H   0  0  0  0  0  0  0  0  0  0  0  0
   -2.7179   -0.4924   -1.4225 H   0  0  0  0  0  0  0  0  0  0  0  0
   -0.7626   -3.3568   -0.3115 H   0  0  0  0  0  0  0  0  0  0  0  0
    4.2817   -0.8927    0.1534 H   0  0  0  0  0  0  0  0  0  0  0  0
  1  9  1  0  0  0  0
  1 11  1  0  0  0  0
  2  7  1  0  0  0  0
  2 20  1  0  0  0  0
  3  8  1  0  0  0  0
  3 21  1  0  0  0  0
  4 10  1  0  0  0  0
  4 22  1  0  0  0  0
  5 11  1  0  0  0  0
  5 23  1  0  0  0  0
  6 12  1  0  0  0  0
  6 24  1  0  0  0  0
  7  8  1  0  0  0  0
  7  9  1  0  0  0  0
  7 13  1  0  0  0  0
  8 10  1  0  0  0  0
  8 14  1  0  0  0  0
  9 12  1  0  0  0  0
  9 15  1  0  0  0  0
 10 11  1  0  0  0  0
 10 16  1  0  0  0  0
 11 17  1  0  0  0  0
 12 18  1  0  0  0  0
 12 19  1  0  0  0  0
M  END
> <PUBCHEM_COMPOUND_CID>
59445439

> <PUBCHEM_CONFORMER_RMSD>
0.6

> <PUBCHEM_CONFORMER_DIVERSEORDER>
1
51
33
40
38
15
29
45
39
21
43
12
36
19
25
11
30
17
23
22
8
37
26
18
24
48
34
35
10
32
2
4
50
20
44
5
49
7
31
42
27
47
6
16
41
46
28
14
13
3
9

> <PUBCHEM_MMFF94_PARTIAL_CHARGES>
17
1 -0.56
10 0.28
11 0.56
12 0.28
2 -0.68
20 0.4
21 0.4
22 0.4
23 0.4
24 0.4
3 -0.68
4 -0.68
5 -0.68
6 -0.68
7 0.28
8 0.28
9 0.28

> <PUBCHEM_EFFECTIVE_ROTOR_COUNT>
2.2

> <PUBCHEM_PHARMACOPHORE_FEATURES>
12
1 1 acceptor
1 2 acceptor
1 2 donor
1 3 acceptor
1 3 donor
1 4 acceptor
1 4 donor
1 5 acceptor
1 5 donor
1 6 acceptor
1 6 donor
6 1 7 8 9 10 11 rings

> <PUBCHEM_HEAVY_ATOM_COUNT>
12

> <PUBCHEM_ATOM_DEF_STEREO_COUNT>
1

> <PUBCHEM_ATOM_UDEF_STEREO_COUNT>
4

> <PUBCHEM_BOND_DEF_STEREO_COUNT>
0

> <PUBCHEM_BOND_UDEF_STEREO_COUNT>
0

> <PUBCHEM_ISOTOPIC_ATOM_COUNT>
0

> <PUBCHEM_COMPONENT_COUNT>
1

> <PUBCHEM_CACTVS_TAUTO_COUNT>
1

> <PUBCHEM_CONFORMER_ID>
038B10BF00000001

> <PUBCHEM_MMFF94_ENERGY>
27.4461

> <PUBCHEM_FEATURE_SELFOVERLAP>
60.963

> <PUBCHEM_SHAPE_FINGERPRINT>
11206711 2 18336540538880667909
12423570 1 11952208843021492080
16945 1 18338523035433217866
193761 8 18122064461916610057
20871998 184 18201441406224244310
21040471 1 18339082566724624816
2334 1 17833831955471707987
23402539 116 18270946982070907918
23552423 10 17901385911359188318
23559900 14 18199189491533209862
241688 4 18410571743242157744
2748010 2 18194967339962473375
5084963 1 18202845461044979329
528886 8 18194678172599193273
66348 1 18410289172985171051

> <PUBCHEM_SHAPE_MULTIPOLES>
211.74
3.59
2.42
0.65
1.75
0.15
0
-0.75
-0.13
-0.7
0.1
-0.03
0.03
-0.1

> <PUBCHEM_SHAPE_SELFOVERLAP>
421.58

> <PUBCHEM_SHAPE_VOLUME>
123.3

> <PUBCHEM_COORDINATE_TYPE>
2
5
10

$$$$
