89249968
  -OEChem-05012100013D

 25 25  0     1  0  0  0  0  0999 V2000
    0.6648   -1.1569    0.2598 O   0  0  0  0  0  0  0  0  0  0  0  0
    0.8728    2.4504   -0.3373 O   0  0  0  0  0  0  0  0  0  0  0  0
   -1.8765    2.0625    0.4667 O   0  0  0  0  0  0  0  0  0  0  0  0
   -2.8648   -0.5520   -0.4651 O   0  0  0  0  0  0  0  0  0  0  0  0
   -1.1203   -2.6595    0.2579 O   0  0  0  0  0  0  0  0  0  0  0  0
    3.4495   -0.9529   -0.1927 N   0  0  0  0  0  0  0  0  0  0  0  0
    0.3615    1.2477    0.2311 C   0  0  1  0  0  0  0  0  0  0  0  0
   -1.0953    1.0665   -0.1952 C   0  0  1  0  0  0  0  0  0  0  0  0
    1.2148    0.0654   -0.2345 C   0  0  1  0  0  0  0  0  0  0  0  0
   -1.6140   -0.3212    0.1826 C   0  0  2  0  0  0  0  0  0  0  0  0
   -0.6401   -1.4162   -0.2526 C   0  0  1  0  0  0  0  0  0  0  0  0
    2.6475    0.1661    0.2793 C   0  0  0  0  0  0  0  0  0  0  0  0
    0.4160    1.3526    1.3216 H   0  0  0  0  0  0  0  0  0  0  0  0
   -1.2139    1.2499   -1.2695 H   0  0  0  0  0  0  0  0  0  0  0  0
    1.2428    0.0298   -1.3329 H   0  0  0  0  0  0  0  0  0  0  0  0
   -1.8010   -0.3807    1.2614 H   0  0  0  0  0  0  0  0  0  0  0  0
   -0.6040   -1.5028   -1.3460 H   0  0  0  0  0  0  0  0  0  0  0  0
    2.6566    0.1562    1.3755 H   0  0  0  0  0  0  0  0  0  0  0  0
    3.1141    1.0990   -0.0531 H   0  0  0  0  0  0  0  0  0  0  0  0
    0.8387    2.3638   -1.3053 H   0  0  0  0  0  0  0  0  0  0  0  0
   -1.8055    1.9152    1.4252 H   0  0  0  0  0  0  0  0  0  0  0  0
   -2.7205   -0.5031   -1.4255 H   0  0  0  0  0  0  0  0  0  0  0  0
   -0.7569   -3.3602   -0.3098 H   0  0  0  0  0  0  0  0  0  0  0  0
    3.0393   -1.8290    0.1283 H   0  0  0  0  0  0  0  0  0  0  0  0
    4.3795   -0.9030    0.2208 H   0  0  0  0  0  0  0  0  0  0  0  0
  1  9  1  0  0  0  0
  1 11  1  0  0  0  0
  2  7  1  0  0  0  0
  2 20  1  0  0  0  0
  3  8  1  0  0  0  0
  3 21  1  0  0  0  0
  4 10  1  0  0  0  0
  4 22  1  0  0  0  0
  5 11  1  0  0  0  0
  5 23  1  0  0  0  0
  6 12  1  0  0  0  0
  6 24  1  0  0  0  0
  6 25  1  0  0  0  0
  7  8  1  0  0  0  0
  7  9  1  0  0  0  0
  7 13  1  0  0  0  0
  8 10  1  0  0  0  0
  8 14  1  0  0  0  0
  9 12  1  0  0  0  0
  9 15  1  0  0  0  0
 10 11  1  0  0  0  0
 10 16  1  0  0  0  0
 11 17  1  0  0  0  0
 12 18  1  0  0  0  0
 12 19  1  0  0  0  0
M  END
> <PUBCHEM_COMPOUND_CID>
89249968

> <PUBCHEM_CONFORMER_RMSD>
0.6

> <PUBCHEM_CONFORMER_DIVERSEORDER>
1
6
17
30
10
28
3
21
19
15
22
8
16
9
2
11
13
14
29
4
24
18
12
26
7
5
23
20
25
27

> <PUBCHEM_MMFF94_PARTIAL_CHARGES>
18
1 -0.56
10 0.28
11 0.56
12 0.27
2 -0.68
20 0.4
21 0.4
22 0.4
23 0.4
24 0.36
25 0.36
3 -0.68
4 -0.68
5 -0.68
6 -0.99
7 0.28
8 0.28
9 0.28

> <PUBCHEM_EFFECTIVE_ROTOR_COUNT>
2.2

> <PUBCHEM_PHARMACOPHORE_FEATURES>
12
1 1 acceptor
1 2 acceptor
1 2 donor
1 3 acceptor
1 3 donor
1 4 acceptor
1 4 donor
1 5 acceptor
1 5 donor
1 6 cation
1 6 donor
6 1 7 8 9 10 11 rings

> <PUBCHEM_HEAVY_ATOM_COUNT>
12

> <PUBCHEM_ATOM_DEF_STEREO_COUNT>
2

> <PUBCHEM_ATOM_UDEF_STEREO_COUNT>
3

> <PUBCHEM_BOND_DEF_STEREO_COUNT>
0

> <PUBCHEM_BOND_UDEF_STEREO_COUNT>
0

> <PUBCHEM_ISOTOPIC_ATOM_COUNT>
0

> <PUBCHEM_COMPONENT_COUNT>
1

> <PUBCHEM_CACTVS_TAUTO_COUNT>
1

> <PUBCHEM_CONFORMER_ID>
0551D8B000000001

> <PUBCHEM_MMFF94_ENERGY>
23.5971

> <PUBCHEM_FEATURE_SELFOVERLAP>
60.956

> <PUBCHEM_SHAPE_FINGERPRINT>
11206711 2 18336539443658732669
12423570 1 17775289378142419239
16945 1 18410861004941509930
193761 8 18122064461911341801
20871998 184 18201441406234793814
21040471 1 18339082566719350064
2334 1 17761773261916884019
23402539 116 18270946982070907918
23552423 10 17901384811863384790
23559900 14 18199188392026837326
241688 4 18267020548743762233
2748010 2 18194968439474101151
5084963 1 18202844361491179505
528886 8 18194678172593918520
66348 1 18410289177285419595

> <PUBCHEM_SHAPE_MULTIPOLES>
212.63
3.66
2.41
0.65
1.95
0.13
0
-0.76
-0.14
-0.74
0.1
-0.03
0.03
-0.1

> <PUBCHEM_SHAPE_SELFOVERLAP>
422.168

> <PUBCHEM_SHAPE_VOLUME>
124.2

> <PUBCHEM_COORDINATE_TYPE>
2
5
10

$$$$
