45266741
  -OEChem-05012100033D

 26 26  0     1  0  0  0  0  0999 V2000
   -0.6705    1.1603    0.2584 O   0  0  0  0  0  0  0  0  0  0  0  0
    1.8481   -2.0809    0.4741 O   0  0  0  0  0  0  0  0  0  0  0  0
   -0.8957   -2.4473   -0.3357 O   0  0  0  0  0  0  0  0  0  0  0  0
    1.1145    2.6588    0.2678 O   0  0  0  0  0  0  0  0  0  0  0  0
   -3.3747    0.9765   -0.1941 O   0  0  0  0  0  0  0  0  0  0  0  0
    2.9165    0.5400   -0.4737 N   0  3  0  0  0  0  0  0  0  0  0  0
    1.5977    0.3115    0.1886 C   0  0  2  0  0  0  0  0  0  0  0  0
    1.0841   -1.0768   -0.1942 C   0  0  2  0  0  0  0  0  0  0  0  0
   -0.3772   -1.2463    0.2305 C   0  0  1  0  0  0  0  0  0  0  0  0
   -1.2229   -0.0599   -0.2391 C   0  0  1  0  0  0  0  0  0  0  0  0
    0.6386    1.4183   -0.2504 C   0  0  1  0  0  0  0  0  0  0  0  0
   -2.6585   -0.1541    0.2678 C   0  0  0  0  0  0  0  0  0  0  0  0
    1.8009    0.3725    1.2645 H   0  0  0  0  0  0  0  0  0  0  0  0
    1.1888   -1.2574   -1.2709 H   0  0  0  0  0  0  0  0  0  0  0  0
   -0.4344   -1.3480    1.3212 H   0  0  0  0  0  0  0  0  0  0  0  0
   -1.2533   -0.0070   -1.3360 H   0  0  0  0  0  0  0  0  0  0  0  0
    0.5949    1.4997   -1.3442 H   0  0  0  0  0  0  0  0  0  0  0  0
    3.6036   -0.1722   -0.1923 H   0  0  0  0  0  0  0  0  0  0  0  0
    3.3075    1.4575   -0.2211 H   0  0  0  0  0  0  0  0  0  0  0  0
    2.8415    0.5083   -1.4994 H   0  0  0  0  0  0  0  0  0  0  0  0
   -2.6873   -0.1424    1.3625 H   0  0  0  0  0  0  0  0  0  0  0  0
   -3.1552   -1.0579   -0.0976 H   0  0  0  0  0  0  0  0  0  0  0  0
    1.7849   -1.9224    1.4314 H   0  0  0  0  0  0  0  0  0  0  0  0
   -0.8633   -2.3614   -1.3038 H   0  0  0  0  0  0  0  0  0  0  0  0
    0.7601    3.3610   -0.3035 H   0  0  0  0  0  0  0  0  0  0  0  0
   -4.2834    0.8981    0.1428 H   0  0  0  0  0  0  0  0  0  0  0  0
  1 10  1  0  0  0  0
  1 11  1  0  0  0  0
  2  8  1  0  0  0  0
  2 23  1  0  0  0  0
  3  9  1  0  0  0  0
  3 24  1  0  0  0  0
  4 11  1  0  0  0  0
  4 25  1  0  0  0  0
  5 12  1  0  0  0  0
  5 26  1  0  0  0  0
  6  7  1  0  0  0  0
  6 18  1  0  0  0  0
  6 19  1  0  0  0  0
  6 20  1  0  0  0  0
  7  8  1  0  0  0  0
  7 11  1  0  0  0  0
  7 13  1  0  0  0  0
  8  9  1  0  0  0  0
  8 14  1  0  0  0  0
  9 10  1  0  0  0  0
  9 15  1  0  0  0  0
 10 12  1  0  0  0  0
 10 16  1  0  0  0  0
 11 17  1  0  0  0  0
 12 21  1  0  0  0  0
 12 22  1  0  0  0  0
M  CHG  1   6   1
M  END
> <PUBCHEM_COMPOUND_CID>
45266741

> <PUBCHEM_CONFORMER_RMSD>
0.6

> <PUBCHEM_CONFORMER_DIVERSEORDER>
1
11
10
9
4
7
5
12
3
8
6
2

> <PUBCHEM_MMFF94_PARTIAL_CHARGES>
19
1 -0.56
10 0.28
11 0.56
12 0.28
18 0.45
19 0.45
2 -0.68
20 0.45
23 0.4
24 0.4
25 0.4
26 0.4
3 -0.68
4 -0.68
5 -0.68
6 -0.85
7 0.5
8 0.28
9 0.28

> <PUBCHEM_EFFECTIVE_ROTOR_COUNT>
2.2

> <PUBCHEM_PHARMACOPHORE_FEATURES>
12
1 1 acceptor
1 2 acceptor
1 2 donor
1 3 acceptor
1 3 donor
1 4 acceptor
1 4 donor
1 5 acceptor
1 5 donor
1 6 cation
1 6 donor
6 1 7 8 9 10 11 rings

> <PUBCHEM_HEAVY_ATOM_COUNT>
12

> <PUBCHEM_ATOM_DEF_STEREO_COUNT>
4

> <PUBCHEM_ATOM_UDEF_STEREO_COUNT>
1

> <PUBCHEM_BOND_DEF_STEREO_COUNT>
0

> <PUBCHEM_BOND_UDEF_STEREO_COUNT>
0

> <PUBCHEM_ISOTOPIC_ATOM_COUNT>
0

> <PUBCHEM_COMPONENT_COUNT>
1

> <PUBCHEM_CACTVS_TAUTO_COUNT>
1

> <PUBCHEM_CONFORMER_ID>
02B2B73500000001

> <PUBCHEM_MMFF94_ENERGY>
25.2351

> <PUBCHEM_FEATURE_SELFOVERLAP>
60.956

> <PUBCHEM_SHAPE_FINGERPRINT>
12423570 1 9578387410966361718
16945 1 18338792415782022985
18185500 45 18410572898746466218
193761 8 18122905592606819490
21040471 1 18339079405612779745
23235685 24 18410853278337711372
2334 1 17834677479939834984
23402655 69 18267854013888377229
23552423 10 18047750682998222862
23559900 14 18270413797454411372
241688 4 17978794506314253072
2748010 2 18194117417474202524
5084963 1 17769667725566346130
5255222 1 18335976562240112973
528862 383 18261390018406978347
528886 8 18411416211095263953
53812653 166 18412542141204274632
63268167 104 18410858724567174497
66348 1 18411141294501965712

> <PUBCHEM_SHAPE_MULTIPOLES>
212.63
3.63
2.42
0.65
1.65
0.16
0
-0.78
-0.17
-0.67
0.12
-0.04
0.03
-0.1

> <PUBCHEM_SHAPE_SELFOVERLAP>
421.667

> <PUBCHEM_SHAPE_VOLUME>
124.2

> <PUBCHEM_COORDINATE_TYPE>
2
5
10

$$$$
