90352730
  -OEChem-05012100063D

 23 23  0     1  0  0  0  0  0999 V2000
    2.7915   -0.5395    0.4608 F   0  0  0  0  0  0  0  0  0  0  0  0
   -0.6804   -1.1571   -0.2532 O   0  0  0  0  0  0  0  0  0  0  0  0
   -0.8506    2.4585    0.3289 O   0  0  0  0  0  0  0  0  0  0  0  0
    1.9031    2.0392   -0.4572 O   0  0  0  0  0  0  0  0  0  0  0  0
    1.0850   -2.6873   -0.2424 O   0  0  0  0  0  0  0  0  0  0  0  0
   -3.3808   -0.9297    0.1884 O   0  0  0  0  0  0  0  0  0  0  0  0
   -0.3502    1.2491   -0.2348 C   0  0  1  0  0  0  0  0  0  0  0  0
    1.1026    1.0547    0.1962 C   0  0  1  0  0  0  0  0  0  0  0  0
   -1.2141    0.0754    0.2358 C   0  0  1  0  0  0  0  0  0  0  0  0
    1.6085   -0.3300   -0.1851 C   0  0  2  0  0  0  0  0  0  0  0  0
    0.6326   -1.4225    0.2372 C   0  0  1  0  0  0  0  0  0  0  0  0
   -2.6472    0.1894   -0.2745 C   0  0  0  0  0  0  0  0  0  0  0  0
   -0.4019    1.3499   -1.3257 H   0  0  0  0  0  0  0  0  0  0  0  0
    1.2212    1.2224    1.2727 H   0  0  0  0  0  0  0  0  0  0  0  0
   -1.2479    0.0270    1.3329 H   0  0  0  0  0  0  0  0  0  0  0  0
    1.8203   -0.3922   -1.2586 H   0  0  0  0  0  0  0  0  0  0  0  0
    0.6054   -1.4892    1.3323 H   0  0  0  0  0  0  0  0  0  0  0  0
   -2.6735    0.1755   -1.3692 H   0  0  0  0  0  0  0  0  0  0  0  0
   -3.1314    1.1013    0.0876 H   0  0  0  0  0  0  0  0  0  0  0  0
   -0.8202    2.3738    1.2971 H   0  0  0  0  0  0  0  0  0  0  0  0
    1.8230    1.9066   -1.4172 H   0  0  0  0  0  0  0  0  0  0  0  0
    0.7195   -3.3656    0.3506 H   0  0  0  0  0  0  0  0  0  0  0  0
   -4.2875   -0.8389   -0.1508 H   0  0  0  0  0  0  0  0  0  0  0  0
  1 10  1  0  0  0  0
  2  9  1  0  0  0  0
  2 11  1  0  0  0  0
  3  7  1  0  0  0  0
  3 20  1  0  0  0  0
  4  8  1  0  0  0  0
  4 21  1  0  0  0  0
  5 11  1  0  0  0  0
  5 22  1  0  0  0  0
  6 12  1  0  0  0  0
  6 23  1  0  0  0  0
  7  8  1  0  0  0  0
  7  9  1  0  0  0  0
  7 13  1  0  0  0  0
  8 10  1  0  0  0  0
  8 14  1  0  0  0  0
  9 12  1  0  0  0  0
  9 15  1  0  0  0  0
 10 11  1  0  0  0  0
 10 16  1  0  0  0  0
 11 17  1  0  0  0  0
 12 18  1  0  0  0  0
 12 19  1  0  0  0  0
M  END
> <PUBCHEM_COMPOUND_CID>
90352730

> <PUBCHEM_CONFORMER_RMSD>
0.6

> <PUBCHEM_CONFORMER_DIVERSEORDER>
2
50
33
13
47
11
32
41
23
25
35
15
40
27
19
34
36
24
12
42
48
49
28
26
6
10
21
38
14
31
45
5
39
9
17
18
29
44
16
22
4
46
37
43
20
8
30
7
3
1

> <PUBCHEM_MMFF94_PARTIAL_CHARGES>
16
1 -0.34
10 0.34
11 0.56
12 0.28
2 -0.56
20 0.4
21 0.4
22 0.4
23 0.4
3 -0.68
4 -0.68
5 -0.68
6 -0.68
7 0.28
8 0.28
9 0.28

> <PUBCHEM_EFFECTIVE_ROTOR_COUNT>
2.2

> <PUBCHEM_PHARMACOPHORE_FEATURES>
10
1 2 acceptor
1 3 acceptor
1 3 donor
1 4 acceptor
1 4 donor
1 5 acceptor
1 5 donor
1 6 acceptor
1 6 donor
6 2 7 8 9 10 11 rings

> <PUBCHEM_HEAVY_ATOM_COUNT>
12

> <PUBCHEM_ATOM_DEF_STEREO_COUNT>
1

> <PUBCHEM_ATOM_UDEF_STEREO_COUNT>
4

> <PUBCHEM_BOND_DEF_STEREO_COUNT>
0

> <PUBCHEM_BOND_UDEF_STEREO_COUNT>
0

> <PUBCHEM_ISOTOPIC_ATOM_COUNT>
0

> <PUBCHEM_COMPONENT_COUNT>
1

> <PUBCHEM_CACTVS_TAUTO_COUNT>
1

> <PUBCHEM_CONFORMER_ID>
0562AC5A00000002

> <PUBCHEM_MMFF94_ENERGY>
22.7783

> <PUBCHEM_FEATURE_SELFOVERLAP>
50.801

> <PUBCHEM_SHAPE_FINGERPRINT>
12423570 1 17918272034813407614
14251717 144 18339634672365931695
16945 1 18338521845737826383
17990270 104 18337107852520893963
18185500 45 18341607126994728719
193761 8 18122908633433148044
20201158 50 18335133164192325379
20645477 70 18336540603859318319
21040471 1 18050565445676689412
2334 1 18122624130530880470
23552423 10 18336834091305310525
241688 4 17760931744800716666
2748010 2 18194124237855868750
5084963 1 18202848733846969120
528862 383 18188765192385936968
66348 1 17979351954324864631

> <PUBCHEM_SHAPE_MULTIPOLES>
210.33
3.53
2.43
0.64
1.87
0.06
0
-0.64
-0.1
-0.77
0.09
-0.02
0.03
-0.1

> <PUBCHEM_SHAPE_SELFOVERLAP>
420.259

> <PUBCHEM_SHAPE_VOLUME>
124.1

> <PUBCHEM_COORDINATE_TYPE>
2
5
10

$$$$
