132471859
  -OEChem-05012100073D

 26 26  0     1  0  0  0  0  0999 V2000
    0.6798   -1.1483    0.2587 O   0  0  0  0  0  0  0  0  0  0  0  0
   -1.8878    2.0626    0.4385 O   0  0  0  0  0  0  0  0  0  0  0  0
    0.8900    2.4521   -0.3623 O   0  0  0  0  0  0  0  0  0  0  0  0
    3.3865   -0.9510   -0.1559 O   0  0  0  0  0  0  0  0  0  0  0  0
   -2.9475   -0.5131   -0.3525 N   0  0  0  0  0  0  0  0  0  0  0  0
   -1.0669   -2.7463    0.1633 N   0  0  0  0  0  0  0  0  0  0  0  0
   -1.0867    1.0704   -0.2059 C   0  0  2  0  0  0  0  0  0  0  0  0
   -1.6038   -0.3193    0.2009 C   0  0  2  0  0  0  0  0  0  0  0  0
    0.3733    1.2583    0.2201 C   0  0  1  0  0  0  0  0  0  0  0  0
    1.2302    0.0743   -0.2336 C   0  0  1  0  0  0  0  0  0  0  0  0
   -0.6260   -1.4177   -0.2633 C   0  0  1  0  0  0  0  0  0  0  0  0
    2.6588    0.1779    0.2920 C   0  0  0  0  0  0  0  0  0  0  0  0
   -1.1872    1.2287   -1.2869 H   0  0  0  0  0  0  0  0  0  0  0  0
   -1.6852   -0.3494    1.2964 H   0  0  0  0  0  0  0  0  0  0  0  0
    0.4256    1.3758    1.3093 H   0  0  0  0  0  0  0  0  0  0  0  0
    1.2770    0.0188   -1.3297 H   0  0  0  0  0  0  0  0  0  0  0  0
   -0.5613   -1.4277   -1.3596 H   0  0  0  0  0  0  0  0  0  0  0  0
    2.6730    0.1705    1.3870 H   0  0  0  0  0  0  0  0  0  0  0  0
    3.1558    1.0828   -0.0703 H   0  0  0  0  0  0  0  0  0  0  0  0
   -3.5633    0.2277   -0.0190 H   0  0  0  0  0  0  0  0  0  0  0  0
   -3.3380   -1.3875   -0.0049 H   0  0  0  0  0  0  0  0  0  0  0  0
   -0.4011   -3.4411   -0.1722 H   0  0  0  0  0  0  0  0  0  0  0  0
   -1.9580   -2.9697   -0.2772 H   0  0  0  0  0  0  0  0  0  0  0  0
   -1.8057    1.9399    1.3996 H   0  0  0  0  0  0  0  0  0  0  0  0
    0.8515    2.3562   -1.3292 H   0  0  0  0  0  0  0  0  0  0  0  0
    4.2903   -0.8669    0.1929 H   0  0  0  0  0  0  0  0  0  0  0  0
  1 10  1  0  0  0  0
  1 11  1  0  0  0  0
  2  7  1  0  0  0  0
  2 24  1  0  0  0  0
  3  9  1  0  0  0  0
  3 25  1  0  0  0  0
  4 12  1  0  0  0  0
  4 26  1  0  0  0  0
  5  8  1  0  0  0  0
  5 20  1  0  0  0  0
  5 21  1  0  0  0  0
  6 11  1  0  0  0  0
  6 22  1  0  0  0  0
  6 23  1  0  0  0  0
  7  8  1  0  0  0  0
  7  9  1  0  0  0  0
  7 13  1  0  0  0  0
  8 11  1  0  0  0  0
  8 14  1  0  0  0  0
  9 10  1  0  0  0  0
  9 15  1  0  0  0  0
 10 12  1  0  0  0  0
 10 16  1  0  0  0  0
 11 17  1  0  0  0  0
 12 18  1  0  0  0  0
 12 19  1  0  0  0  0
M  END
> <PUBCHEM_COMPOUND_CID>
132471859

> <PUBCHEM_CONFORMER_RMSD>
0.6

> <PUBCHEM_CONFORMER_DIVERSEORDER>
1
6
3
5
2
4

> <PUBCHEM_MMFF94_PARTIAL_CHARGES>
19
1 -0.56
10 0.28
11 0.55
12 0.28
2 -0.68
20 0.36
21 0.36
22 0.36
23 0.36
24 0.4
25 0.4
26 0.4
3 -0.68
4 -0.68
5 -0.99
6 -0.99
7 0.28
8 0.27
9 0.28

> <PUBCHEM_EFFECTIVE_ROTOR_COUNT>
2.2

> <PUBCHEM_PHARMACOPHORE_FEATURES>
12
1 1 acceptor
1 2 acceptor
1 2 donor
1 3 acceptor
1 3 donor
1 4 acceptor
1 4 donor
1 5 cation
1 5 donor
1 6 cation
1 6 donor
6 1 7 8 9 10 11 rings

> <PUBCHEM_HEAVY_ATOM_COUNT>
12

> <PUBCHEM_ATOM_DEF_STEREO_COUNT>
5

> <PUBCHEM_ATOM_UDEF_STEREO_COUNT>
0

> <PUBCHEM_BOND_DEF_STEREO_COUNT>
0

> <PUBCHEM_BOND_UDEF_STEREO_COUNT>
0

> <PUBCHEM_ISOTOPIC_ATOM_COUNT>
0

> <PUBCHEM_COMPONENT_COUNT>
1

> <PUBCHEM_CACTVS_TAUTO_COUNT>
1

> <PUBCHEM_CONFORMER_ID>
07E55C3300000001

> <PUBCHEM_MMFF94_ENERGY>
23.8186

> <PUBCHEM_FEATURE_SELFOVERLAP>
60.911

> <PUBCHEM_SHAPE_FINGERPRINT>
11206711 2 18336540538891230397
12423570 1 17775288274335811175
16945 1 18338804510409928522
193761 8 18122063375300388205
20871998 184 18201441414808930134
21040471 1 18339082575319834168
21501502 16 17977665642943467791
2334 1 17762055836421046699
23402539 116 18270946986376424710
23552423 10 17901667390609767270
23559900 14 18199189495833438918
241688 4 18266740168983725041
2748010 2 18194967339951930375
5084963 1 18130787867017600881
528886 8 18194678172604468025
66348 1 18338231570383682283

> <PUBCHEM_SHAPE_MULTIPOLES>
213.52
3.65
2.47
0.64
1.61
0.03
0
-0.73
-0.07
-0.7
0.05
-0.01
0.04
-0.11

> <PUBCHEM_SHAPE_SELFOVERLAP>
421.818

> <PUBCHEM_SHAPE_VOLUME>
125

> <PUBCHEM_COORDINATE_TYPE>
2
5
10

$$$$
