125311236
  -OEChem-05032110253D

 23 23  0     1  0  0  0  0  0999 V2000
   -0.6529   -1.1643   -0.2786 O   0  0  0  0  0  0  0  0  0  0  0  0
   -0.9666    2.4460    0.2872 O   0  0  0  0  0  0  0  0  0  0  0  0
    1.8757    1.9431   -0.5743 O   0  0  0  0  0  0  0  0  0  0  0  0
   -3.3398   -1.0313    0.2339 O   0  0  0  0  0  0  0  0  0  0  0  0
    1.1556   -2.6359   -0.1971 O   0  0  0  0  0  0  0  0  0  0  0  0
    2.8943   -0.4519    0.4322 N   0  0  0  0  0  0  0  0  0  0  0  0
   -0.3996    1.2518   -0.2437 C   0  0  2  0  0  0  0  0  0  0  0  0
   -1.2097    0.0506    0.2333 C   0  0  1  0  0  0  0  0  0  0  0  0
    1.0445    1.1155    0.2429 C   0  0  1  0  0  0  0  0  0  0  0  0
    1.5528   -0.3104    0.1875 C   0  0  0  0  0  0  0  0  0  0  0  0
   -2.6601    0.1177   -0.2374 C   0  0  0  0  0  0  0  0  0  0  0  0
    0.7059   -1.3308   -0.0860 C   0  0  0  0  0  0  0  0  0  0  0  0
   -0.4281    1.3299   -1.3375 H   0  0  0  0  0  0  0  0  0  0  0  0
   -1.2136   -0.0131    1.3308 H   0  0  0  0  0  0  0  0  0  0  0  0
    1.1399    1.4908    1.2692 H   0  0  0  0  0  0  0  0  0  0  0  0
   -2.7153    0.1132   -1.3312 H   0  0  0  0  0  0  0  0  0  0  0  0
   -3.1678    1.0074    0.1469 H   0  0  0  0  0  0  0  0  0  0  0  0
   -0.9791    2.3696    1.2566 H   0  0  0  0  0  0  0  0  0  0  0  0
    1.8543    1.5908   -1.4807 H   0  0  0  0  0  0  0  0  0  0  0  0
    3.3139   -1.3731    0.4138 H   0  0  0  0  0  0  0  0  0  0  0  0
    3.4607    0.3642    0.6263 H   0  0  0  0  0  0  0  0  0  0  0  0
   -4.2580   -0.9708   -0.0803 H   0  0  0  0  0  0  0  0  0  0  0  0
    0.3655   -3.1683   -0.3955 H   0  0  0  0  0  0  0  0  0  0  0  0
  1  8  1  0  0  0  0
  1 12  1  0  0  0  0
  2  7  1  0  0  0  0
  2 18  1  0  0  0  0
  3  9  1  0  0  0  0
  3 19  1  0  0  0  0
  4 11  1  0  0  0  0
  4 22  1  0  0  0  0
  5 12  1  0  0  0  0
  5 23  1  0  0  0  0
  6 10  1  0  0  0  0
  6 20  1  0  0  0  0
  6 21  1  0  0  0  0
  7  8  1  0  0  0  0
  7  9  1  0  0  0  0
  7 13  1  0  0  0  0
  8 11  1  0  0  0  0
  8 14  1  0  0  0  0
  9 10  1  0  0  0  0
  9 15  1  0  0  0  0
 10 12  2  0  0  0  0
 11 16  1  0  0  0  0
 11 17  1  0  0  0  0
M  END
> <PUBCHEM_COMPOUND_CID>
125311236

> <PUBCHEM_CONFORMER_RMSD>
0.4

> <PUBCHEM_CONFORMER_DIVERSEORDER>
1
6
3
5
4
2

> <PUBCHEM_MMFF94_PARTIAL_CHARGES>
18
1 -0.36
10 -0.04
11 0.28
12 0.15
18 0.4
19 0.4
2 -0.68
20 0.4
21 0.4
22 0.4
23 0.45
3 -0.68
4 -0.68
5 -0.53
6 -0.9
7 0.28
8 0.28
9 0.42

> <PUBCHEM_EFFECTIVE_ROTOR_COUNT>
1.8

> <PUBCHEM_PHARMACOPHORE_FEATURES>
11
1 1 acceptor
1 2 acceptor
1 2 donor
1 3 acceptor
1 3 donor
1 4 acceptor
1 4 donor
1 5 donor
1 6 cation
1 6 donor
6 1 7 8 9 10 12 rings

> <PUBCHEM_HEAVY_ATOM_COUNT>
12

> <PUBCHEM_ATOM_DEF_STEREO_COUNT>
3

> <PUBCHEM_ATOM_UDEF_STEREO_COUNT>
0

> <PUBCHEM_BOND_DEF_STEREO_COUNT>
0

> <PUBCHEM_BOND_UDEF_STEREO_COUNT>
0

> <PUBCHEM_ISOTOPIC_ATOM_COUNT>
0

> <PUBCHEM_COMPONENT_COUNT>
1

> <PUBCHEM_CACTVS_TAUTO_COUNT>
8

> <PUBCHEM_CONFORMER_ID>
0778190400000001

> <PUBCHEM_MMFF94_ENERGY>
26.8773

> <PUBCHEM_FEATURE_SELFOVERLAP>
55.837

> <PUBCHEM_SHAPE_FINGERPRINT>
10219947 1 18338799026069085459
12423570 1 18341603798368772114
14251717 144 18267858553299478655
16945 1 18410577245031641807
17990270 104 18336827485592965707
193761 8 18123190108430892740
19973954 147 18267022743635535061
20201158 50 18335414643469291091
20645477 70 18335696187513891583
21040471 1 18051127300429242040
21501502 16 17979634537508795074
2334 1 18050846916279395958
23552423 10 18336552607691101549
241688 4 17832989343133605410
2748010 2 18194402422898180166
5084963 1 18202566163664192978
528862 383 18116427227209541936
66348 1 17835518228335594719

> <PUBCHEM_SHAPE_MULTIPOLES>
212.63
3.61
2.36
0.65
1.62
0.11
0
-0.78
-0.24
-0.55
0.17
-0.04
0.06
-0.09

> <PUBCHEM_SHAPE_SELFOVERLAP>
430.669

> <PUBCHEM_SHAPE_VOLUME>
121.9

> <PUBCHEM_COORDINATE_TYPE>
2
5
10

$$$$
