100930407
  -OEChem-05072106003D

 52 52  0     1  0  0  0  0  0999 V2000
   -3.2835    0.1515   -1.0888 O   0  0  0  0  0  0  0  0  0  0  0  0
   -1.9762    1.1721    0.6053 O   0  0  0  0  0  0  0  0  0  0  0  0
   -3.7142   -2.6874    1.8787 O   0  0  0  0  0  0  0  0  0  0  0  0
   -2.0647   -3.2592   -0.4027 O   0  0  0  0  0  0  0  0  0  0  0  0
   -3.6917    0.1244    2.5635 O   0  0  0  0  0  0  0  0  0  0  0  0
   -2.0986   -0.3137   -3.5037 O   0  0  0  0  0  0  0  0  0  0  0  0
   -0.2920    3.0241    1.8065 O   0  0  0  0  0  0  0  0  0  0  0  0
    0.6896    1.6757   -1.4651 O   0  0  0  0  0  0  0  0  0  0  0  0
    2.5241    3.5346   -0.2611 O   0  0  0  0  0  0  0  0  0  0  0  0
    4.2056    1.5988   -0.8595 O   0  0  0  0  0  0  0  0  0  0  0  0
    4.2820   -0.9129    0.0282 O   0  0  0  0  0  0  0  0  0  0  0  0
   -3.0271   -1.6873    1.1229 C   0  0  1  0  0  0  0  0  0  0  0  0
   -2.9576   -2.1499   -0.3337 C   0  0  1  0  0  0  0  0  0  0  0  0
   -3.7889   -0.3679    1.2317 C   0  0  2  0  0  0  0  0  0  0  0  0
   -2.4751   -1.0193   -1.2526 C   0  0  1  0  0  0  0  0  0  0  0  0
   -3.2617    0.6722    0.2418 C   0  0  2  0  0  0  0  0  0  0  0  0
   -2.5481   -1.4084   -2.7268 C   0  0  0  0  0  0  0  0  0  0  0  0
   -1.7057    2.4198   -0.0257 C   0  0  0  0  0  0  0  0  0  0  0  0
   -0.3097    2.8884    0.3858 C   0  0  2  0  0  0  0  0  0  0  0  0
    0.7820    1.8982   -0.0611 C   0  0  2  0  0  0  0  0  0  0  0  0
    2.2186    2.2775    0.3296 C   0  0  1  0  0  0  0  0  0  0  0  0
    3.2984    1.2811   -0.0890 C   0  0  0  0  0  0  0  0  0  0  0  0
    3.2248   -0.1094    0.5126 C   0  0  0  0  0  0  0  0  0  0  0  0
    4.2415   -2.2273    0.5749 C   0  0  0  0  0  0  0  0  0  0  0  0
    5.3829   -3.0129    0.0198 C   0  0  0  0  0  0  0  0  0  0  0  0
    6.3452   -3.5630    0.7684 C   0  0  0  0  0  0  0  0  0  0  0  0
   -2.0270   -1.6007    1.5634 H   0  0  0  0  0  0  0  0  0  0  0  0
   -3.9444   -2.5050   -0.6549 H   0  0  0  0  0  0  0  0  0  0  0  0
   -4.8506   -0.5587    1.0288 H   0  0  0  0  0  0  0  0  0  0  0  0
   -1.4328   -0.7559   -1.0283 H   0  0  0  0  0  0  0  0  0  0  0  0
   -3.9683    1.5120    0.2664 H   0  0  0  0  0  0  0  0  0  0  0  0
   -1.9193   -2.2776   -2.9420 H   0  0  0  0  0  0  0  0  0  0  0  0
   -3.5801   -1.6257   -3.0216 H   0  0  0  0  0  0  0  0  0  0  0  0
   -2.4464    3.1531    0.3156 H   0  0  0  0  0  0  0  0  0  0  0  0
   -1.7814    2.3235   -1.1143 H   0  0  0  0  0  0  0  0  0  0  0  0
   -0.1247    3.8727   -0.0596 H   0  0  0  0  0  0  0  0  0  0  0  0
   -4.6120   -2.7779    1.5163 H   0  0  0  0  0  0  0  0  0  0  0  0
    0.5666    0.9354    0.4188 H   0  0  0  0  0  0  0  0  0  0  0  0
   -1.1778   -2.9462   -0.1552 H   0  0  0  0  0  0  0  0  0  0  0  0
   -4.1803    0.9642    2.6019 H   0  0  0  0  0  0  0  0  0  0  0  0
    2.3004    2.4051    1.4143 H   0  0  0  0  0  0  0  0  0  0  0  0
   -2.1556   -0.5813   -4.4368 H   0  0  0  0  0  0  0  0  0  0  0  0
   -0.9691    3.6790    2.0476 H   0  0  0  0  0  0  0  0  0  0  0  0
    1.2849    0.9420   -1.6927 H   0  0  0  0  0  0  0  0  0  0  0  0
    3.2947   -0.0141    1.6013 H   0  0  0  0  0  0  0  0  0  0  0  0
    2.2697   -0.5634    0.2323 H   0  0  0  0  0  0  0  0  0  0  0  0
    2.3916    3.4514   -1.2211 H   0  0  0  0  0  0  0  0  0  0  0  0
    4.2903   -2.1716    1.6688 H   0  0  0  0  0  0  0  0  0  0  0  0
    3.3011   -2.7138    0.2914 H   0  0  0  0  0  0  0  0  0  0  0  0
    5.4223   -3.1437   -1.0584 H   0  0  0  0  0  0  0  0  0  0  0  0
    7.1481   -4.1252    0.3042 H   0  0  0  0  0  0  0  0  0  0  0  0
    6.3512   -3.4640    1.8482 H   0  0  0  0  0  0  0  0  0  0  0  0
  1 15  1  0  0  0  0
  1 16  1  0  0  0  0
  2 16  1  0  0  0  0
  2 18  1  0  0  0  0
  3 12  1  0  0  0  0
  3 37  1  0  0  0  0
  4 13  1  0  0  0  0
  4 39  1  0  0  0  0
  5 14  1  0  0  0  0
  5 40  1  0  0  0  0
  6 17  1  0  0  0  0
  6 42  1  0  0  0  0
  7 19  1  0  0  0  0
  7 43  1  0  0  0  0
  8 20  1  0  0  0  0
  8 44  1  0  0  0  0
  9 21  1  0  0  0  0
  9 47  1  0  0  0  0
 10 22  2  0  0  0  0
 11 23  1  0  0  0  0
 11 24  1  0  0  0  0
 12 13  1  0  0  0  0
 12 14  1  0  0  0  0
 12 27  1  0  0  0  0
 13 15  1  0  0  0  0
 13 28  1  0  0  0  0
 14 16  1  0  0  0  0
 14 29  1  0  0  0  0
 15 17  1  0  0  0  0
 15 30  1  0  0  0  0
 16 31  1  0  0  0  0
 17 32  1  0  0  0  0
 17 33  1  0  0  0  0
 18 19  1  0  0  0  0
 18 34  1  0  0  0  0
 18 35  1  0  0  0  0
 19 20  1  0  0  0  0
 19 36  1  0  0  0  0
 20 21  1  0  0  0  0
 20 38  1  0  0  0  0
 21 22  1  0  0  0  0
 21 41  1  0  0  0  0
 22 23  1  0  0  0  0
 23 45  1  0  0  0  0
 23 46  1  0  0  0  0
 24 25  1  0  0  0  0
 24 48  1  0  0  0  0
 24 49  1  0  0  0  0
 25 26  2  0  0  0  0
 25 50  1  0  0  0  0
 26 51  1  0  0  0  0
 26 52  1  0  0  0  0
M  END
> <PUBCHEM_COMPOUND_CID>
100930407

> <PUBCHEM_CONFORMER_RMSD>
1

> <PUBCHEM_CONFORMER_DIVERSEORDER>
1
10
71
42
8
41
31
56
4
89
73
37
16
75
82
44
69
46
35
76
55
74
66
50
40
30
87
67
38
58
6
47
23
70
83
36
85
52
17
63
5
54
86
29
27
28
20
72
88
39
65
33
11
81
84
14
79
62
22
78
43
13
61
64
45
60
19
21
90
59
53
68
49
24
7
26
48
12
32
34
18
80
15
2
57
51
9
77
3
25

> <PUBCHEM_MMFF94_PARTIAL_CHARGES>
36
1 -0.56
10 -0.57
11 -0.56
12 0.28
13 0.28
14 0.28
15 0.28
16 0.56
17 0.28
18 0.28
19 0.28
2 -0.56
20 0.28
21 0.34
22 0.45
23 0.34
24 0.42
25 -0.29
26 -0.3
3 -0.68
37 0.4
39 0.4
4 -0.68
40 0.4
42 0.4
43 0.4
44 0.4
47 0.4
5 -0.68
50 0.15
51 0.15
52 0.15
6 -0.68
7 -0.68
8 -0.68
9 -0.68

> <PUBCHEM_EFFECTIVE_ROTOR_COUNT>
12.2

> <PUBCHEM_PHARMACOPHORE_FEATURES>
20
1 1 acceptor
1 10 acceptor
1 11 acceptor
1 2 acceptor
1 26 hydrophobe
1 3 acceptor
1 3 donor
1 4 acceptor
1 4 donor
1 5 acceptor
1 5 donor
1 6 acceptor
1 6 donor
1 7 acceptor
1 7 donor
1 8 acceptor
1 8 donor
1 9 acceptor
1 9 donor
6 1 12 13 14 15 16 rings

> <PUBCHEM_HEAVY_ATOM_COUNT>
26

> <PUBCHEM_ATOM_DEF_STEREO_COUNT>
8

> <PUBCHEM_ATOM_UDEF_STEREO_COUNT>
0

> <PUBCHEM_BOND_DEF_STEREO_COUNT>
0

> <PUBCHEM_BOND_UDEF_STEREO_COUNT>
0

> <PUBCHEM_ISOTOPIC_ATOM_COUNT>
0

> <PUBCHEM_COMPONENT_COUNT>
1

> <PUBCHEM_CACTVS_TAUTO_COUNT>
1

> <PUBCHEM_CONFORMER_ID>
0604136700000001

> <PUBCHEM_MMFF94_ENERGY>
55.6761

> <PUBCHEM_FEATURE_SELFOVERLAP>
101.599

> <PUBCHEM_SHAPE_FINGERPRINT>
10764073 3 18263662718633910299
10928967 22 18198350747926834982
11135926 11 18263362650543705020
12174731 88 17902787467148514906
12539773 59 17703790314784926435
12633257 1 16917351441562544312
14279260 333 17898571965617403402
14844126 61 17914602870191121640
15119646 57 14202538360995796022
15537594 2 18270413788036054380
16728300 4 18342471365453458283
212916 134 16199612211561560233
21315759 227 18041834138168164618
22907989 373 11891340854513782705
235170 7 16951120819506688388
23559900 14 18408879616786453968
3737641 26 18337121158740812748
484985 159 18043246842816280299
5486654 36 18263650554716997840
6431902 208 18409442567045615802

> <PUBCHEM_SHAPE_MULTIPOLES>
470.51
11.07
4.76
2.11
17.15
0.26
-1.23
-11.89
2.47
3.76
0.83
-3.31
-0.77
-1.11

> <PUBCHEM_SHAPE_SELFOVERLAP>
932.824

> <PUBCHEM_SHAPE_VOLUME>
275.4

> <PUBCHEM_COORDINATE_TYPE>
2
5
10