101003256
  -OEChem-05072106003D

 51 53  0     1  0  0  0  0  0999 V2000
   -3.2936    0.5236    0.0755 O   0  0  0  0  0  0  0  0  0  0  0  0
   -2.1785    2.5352   -0.4017 O   0  0  0  0  0  0  0  0  0  0  0  0
   -1.9366   -1.9733    0.9717 O   0  0  0  0  0  0  0  0  0  0  0  0
   -1.8645   -2.9561   -1.1613 O   0  0  0  0  0  0  0  0  0  0  0  0
   -0.0034    2.8020    1.0547 O   0  0  0  0  0  0  0  0  0  0  0  0
    3.0426    2.6851    0.6775 O   0  0  0  0  0  0  0  0  0  0  0  0
   -1.9039    0.3720    0.3742 C   0  0  1  0  0  0  0  0  0  0  0  0
   -1.4447   -1.0259    0.0198 C   0  0  2  0  0  0  0  0  0  0  0  0
   -1.2475    1.4563   -0.4500 C   0  0  2  0  0  0  0  0  0  0  0  0
   -3.4605    1.9191   -0.2122 C   0  0  0  0  0  0  0  0  0  0  0  0
   -1.9971   -1.5394   -1.2877 C   0  0  0  0  0  0  0  0  0  0  0  0
   -2.0156   -3.2108    0.2451 C   0  0  0  0  0  0  0  0  0  0  0  0
    0.0174    1.9673    0.1516 C   0  0  0  0  0  0  0  0  0  0  0  0
   -4.1569    2.5958    0.9618 C   0  0  0  0  0  0  0  0  0  0  0  0
   -4.2739    2.0555   -1.4926 C   0  0  0  0  0  0  0  0  0  0  0  0
    1.3070    1.3905   -0.4138 C   0  0  0  0  0  0  0  0  0  0  0  0
   -0.8907   -4.1334    0.6966 C   0  0  0  0  0  0  0  0  0  0  0  0
   -3.3812   -3.8366    0.4996 C   0  0  0  0  0  0  0  0  0  0  0  0
    2.4575    1.3850    0.5994 C   0  0  1  0  0  0  0  0  0  0  0  0
    3.5392    0.4033    0.2089 C   0  0  0  0  0  0  0  0  0  0  0  0
    3.4797   -0.9158    0.6585 C   0  0  0  0  0  0  0  0  0  0  0  0
    4.5968    0.8171   -0.6009 C   0  0  0  0  0  0  0  0  0  0  0  0
    4.4779   -1.8211    0.2982 C   0  0  0  0  0  0  0  0  0  0  0  0
    5.5949   -0.0881   -0.9612 C   0  0  0  0  0  0  0  0  0  0  0  0
    5.5355   -1.4073   -0.5117 C   0  0  0  0  0  0  0  0  0  0  0  0
   -1.7832    0.5481    1.4510 H   0  0  0  0  0  0  0  0  0  0  0  0
   -0.3532   -1.1074    0.0486 H   0  0  0  0  0  0  0  0  0  0  0  0
   -1.1066    1.1951   -1.5037 H   0  0  0  0  0  0  0  0  0  0  0  0
   -3.0607   -1.3297   -1.4382 H   0  0  0  0  0  0  0  0  0  0  0  0
   -1.4392   -1.1872   -2.1593 H   0  0  0  0  0  0  0  0  0  0  0  0
   -3.5573    2.4960    1.8739 H   0  0  0  0  0  0  0  0  0  0  0  0
   -5.1311    2.1385    1.1635 H   0  0  0  0  0  0  0  0  0  0  0  0
   -4.2916    3.6673    0.7805 H   0  0  0  0  0  0  0  0  0  0  0  0
   -3.7614    1.5614   -2.3262 H   0  0  0  0  0  0  0  0  0  0  0  0
   -4.4054    3.1063   -1.7709 H   0  0  0  0  0  0  0  0  0  0  0  0
   -5.2565    1.5828   -1.3924 H   0  0  0  0  0  0  0  0  0  0  0  0
    1.1000    0.3682   -0.7455 H   0  0  0  0  0  0  0  0  0  0  0  0
    1.5651    1.9851   -1.2983 H   0  0  0  0  0  0  0  0  0  0  0  0
   -0.9470   -4.3324    1.7719 H   0  0  0  0  0  0  0  0  0  0  0  0
   -0.9123   -5.0832    0.1522 H   0  0  0  0  0  0  0  0  0  0  0  0
    0.0852   -3.6730    0.5037 H   0  0  0  0  0  0  0  0  0  0  0  0
   -3.5365   -4.0324    1.5658 H   0  0  0  0  0  0  0  0  0  0  0  0
   -3.5015   -4.7701   -0.0600 H   0  0  0  0  0  0  0  0  0  0  0  0
   -4.1803   -3.1598    0.1762 H   0  0  0  0  0  0  0  0  0  0  0  0
    2.0962    1.1390    1.6054 H   0  0  0  0  0  0  0  0  0  0  0  0
    2.3426    3.3060    0.9418 H   0  0  0  0  0  0  0  0  0  0  0  0
    2.6589   -1.2504    1.2873 H   0  0  0  0  0  0  0  0  0  0  0  0
    4.6610    1.8343   -0.9772 H   0  0  0  0  0  0  0  0  0  0  0  0
    4.4310   -2.8485    0.6473 H   0  0  0  0  0  0  0  0  0  0  0  0
    6.4167    0.2328   -1.5946 H   0  0  0  0  0  0  0  0  0  0  0  0
    6.3121   -2.1124   -0.7931 H   0  0  0  0  0  0  0  0  0  0  0  0
  1  7  1  0  0  0  0
  1 10  1  0  0  0  0
  2  9  1  0  0  0  0
  2 10  1  0  0  0  0
  3  8  1  0  0  0  0
  3 12  1  0  0  0  0
  4 11  1  0  0  0  0
  4 12  1  0  0  0  0
  5 13  2  0  0  0  0
  6 19  1  0  0  0  0
  6 46  1  0  0  0  0
  7  8  1  0  0  0  0
  7  9  1  0  0  0  0
  7 26  1  0  0  0  0
  8 11  1  0  0  0  0
  8 27  1  0  0  0  0
  9 13  1  0  0  0  0
  9 28  1  0  0  0  0
 10 14  1  0  0  0  0
 10 15  1  0  0  0  0
 11 29  1  0  0  0  0
 11 30  1  0  0  0  0
 12 17  1  0  0  0  0
 12 18  1  0  0  0  0
 13 16  1  0  0  0  0
 14 31  1  0  0  0  0
 14 32  1  0  0  0  0
 14 33  1  0  0  0  0
 15 34  1  0  0  0  0
 15 35  1  0  0  0  0
 15 36  1  0  0  0  0
 16 19  1  0  0  0  0
 16 37  1  0  0  0  0
 16 38  1  0  0  0  0
 17 39  1  0  0  0  0
 17 40  1  0  0  0  0
 17 41  1  0  0  0  0
 18 42  1  0  0  0  0
 18 43  1  0  0  0  0
 18 44  1  0  0  0  0
 19 20  1  0  0  0  0
 19 45  1  0  0  0  0
 20 21  2  0  0  0  0
 20 22  1  0  0  0  0
 21 23  1  0  0  0  0
 21 47  1  0  0  0  0
 22 24  2  0  0  0  0
 22 48  1  0  0  0  0
 23 25  2  0  0  0  0
 23 49  1  0  0  0  0
 24 25  1  0  0  0  0
 24 50  1  0  0  0  0
 25 51  1  0  0  0  0
M  END
> <PUBCHEM_COMPOUND_CID>
101003256

> <PUBCHEM_CONFORMER_RMSD>
1

> <PUBCHEM_CONFORMER_DIVERSEORDER>
1
77
129
28
10
159
59
177
148
46
107
30
131
98
123
132
118
3
62
84
18
75
151
143
153
81
171
110
19
120
73
72
100
49
155
124
36
162
173
11
116
166
142
95
76
56
35
83
38
27
41
147
156
176
96
13
86
6
69
68
7
157
138
42
23
15
101
154
167
170
164
169
26
106
39
54
158
160
12
64
50
152
88
82
9
33
8
133
60
94
24
122
165
45
55
16
136
119
4
31
175
29
93
179
150
74
92
87
141
117
127
97
25
135
85
47
70
103
134
105
66
40
146
79
140
121
178
43
67
22
163
90
5
17
44
168
114
99
51
128
2
130
113
144
58
80
20
37
52
102
104
139
125
21
71
14
137
149
145
57
65
115
89
32
112
126
91
78
34
53
161
111
174
48
108
109
63
61
172

> <PUBCHEM_MMFF94_PARTIAL_CHARGES>
27
1 -0.56
10 0.56
11 0.28
12 0.56
13 0.45
16 0.06
19 0.42
2 -0.56
20 -0.14
21 -0.15
22 -0.15
23 -0.15
24 -0.15
25 -0.15
3 -0.56
4 -0.56
46 0.4
47 0.15
48 0.15
49 0.15
5 -0.57
50 0.15
51 0.15
6 -0.68
7 0.28
8 0.28
9 0.34

> <PUBCHEM_EFFECTIVE_ROTOR_COUNT>
7

> <PUBCHEM_PHARMACOPHORE_FEATURES>
12
1 1 acceptor
1 2 acceptor
1 3 acceptor
1 4 acceptor
1 5 acceptor
1 6 acceptor
1 6 donor
3 10 14 15 hydrophobe
3 12 17 18 hydrophobe
5 1 2 7 9 10 rings
5 3 4 8 11 12 rings
6 20 21 22 23 24 25 rings

> <PUBCHEM_HEAVY_ATOM_COUNT>
25

> <PUBCHEM_ATOM_DEF_STEREO_COUNT>
4

> <PUBCHEM_ATOM_UDEF_STEREO_COUNT>
0

> <PUBCHEM_BOND_DEF_STEREO_COUNT>
0

> <PUBCHEM_BOND_UDEF_STEREO_COUNT>
0

> <PUBCHEM_ISOTOPIC_ATOM_COUNT>
0

> <PUBCHEM_COMPONENT_COUNT>
1

> <PUBCHEM_CACTVS_TAUTO_COUNT>
2

> <PUBCHEM_CONFORMER_ID>
06052FF800000001

> <PUBCHEM_MMFF94_ENERGY>
66.2418

> <PUBCHEM_FEATURE_SELFOVERLAP>
60.991

> <PUBCHEM_SHAPE_FINGERPRINT>
10366900 7 17632573800118918968
10616163 171 18411140264258694334
107951 10 17386293082237212107
10906281 52 17916883308942175628
1100329 8 18338229345965474874
11036077 3 18268438932182753337
11552529 35 17844814878511147816
11578080 2 17201622575042506657
11991303 11 17967527966095891847
12422481 6 18198362800069551203
12549972 3 17846204605326921728
12553582 1 17761492895068154979
12555020 224 18339634543015766133
12616971 3 17313104142870138604
12633257 1 18270400490896271184
12643181 29 18338802200709761654
12788726 201 18190452942909244579
13135754 10 17605298322284328699
13140716 1 18342177790941639272
13583140 156 17630879607140432712
13631057 29 18194971957717123780
13690498 29 18267600172351168230
13726171 33 17983049835990860628
13785724 45 17832725825796026291
138480 1 16896236110840900939
14251757 5 18410017615599610806
14790565 3 18123194497930343120
14866123 147 18411141346664624403
15042514 8 18337397149197286761
15403338 16 16086419486135652475
15422964 175 17617372222577323583
15927050 60 18340207367653180935
17859628 97 18265331698909949979
19319366 153 17677333788803975234
19591789 44 18409726227833112905
19930381 70 17617375082720035955
20286276 3 18339086015947776096
20775530 9 18268711791370704690
21033648 29 18264473014742182076
21133410 171 17402553923306255002
21344244 246 18125990573801678239
21478907 32 18265895955103414115
221490 88 18341053038318702128
22393880 68 18410862096807507380
22849339 104 18338535074517030934
23559900 14 18342451552658720528
23728640 28 18410858754632075427
3298306 158 18048588231654124173
3383291 50 18340763754479881779
340366 18 18114186319496730276
3411729 13 17764317141736395313
3737641 26 17979367678632684498
4015057 19 17702927232221812520
404807 14 14471367742426020700
4058900 60 17975138639069412369
4073 2 18341327890508836976
44062 13 18411704279353572414
469060 322 13624108563317685322
474144 1 17679287578022297514
5265222 85 18337121059856936236
5309563 4 17761777673022948498
532947 4 18051693235569700111
5385378 56 17764598620950304401
57307002 29 18261126144691739190
58260988 521 18044401382287278529
59025328 239 16980650528043242447
59755656 520 18341051818521876205
613672 6 17761196014001971499
6138700 20 18124311610280584047
9709674 26 18340760563334705868

> <PUBCHEM_SHAPE_MULTIPOLES>
479.27
10.62
4.96
1.09
12.96
4.48
0.18
-0.91
1.78
-5.63
-0.9
-0.42
-0.08
0.46

> <PUBCHEM_SHAPE_SELFOVERLAP>
1009.442

> <PUBCHEM_SHAPE_VOLUME>
270.5

> <PUBCHEM_COORDINATE_TYPE>
2
5
10