101040890
  -OEChem-05072106003D

 37 36  0     1  0  0  0  0  0999 V2000
   -3.5199    1.0874   -1.6247 O   0  0  0  0  0  0  0  0  0  0  0  0
   -3.1390    1.7954    0.9784 O   0  0  0  0  0  0  0  0  0  0  0  0
   -5.2210    0.0206    0.3688 O   0  0  0  0  0  0  0  0  0  0  0  0
   -5.0243   -2.9903    0.4222 O   0  0  0  0  0  0  0  0  0  0  0  0
   -0.6860    2.4217    0.2108 O   0  0  0  0  0  0  0  0  0  0  0  0
    7.2007   -1.3325   -0.1969 O   0  0  0  0  0  0  0  0  0  0  0  0
    6.4441    0.6486    0.6161 O   0  0  0  0  0  0  0  0  0  0  0  0
    1.3731    0.6070    0.0620 N   0  0  0  0  0  0  0  0  0  0  0  0
   -3.0719    0.0625   -0.7276 C   0  0  1  0  0  0  0  0  0  0  0  0
   -2.3691    0.7163    0.4701 C   0  0  1  0  0  0  0  0  0  0  0  0
   -4.2933   -0.7984   -0.3530 C   0  0  1  0  0  0  0  0  0  0  0  0
   -0.9694    1.2262    0.1243 C   0  0  0  0  0  0  0  0  0  0  0  0
    0.0358    0.1814   -0.3256 C   0  0  0  0  0  0  0  0  0  0  0  0
   -3.9798   -2.0278    0.4989 C   0  0  0  0  0  0  0  0  0  0  0  0
    2.3729   -0.3646   -0.3610 C   0  0  0  0  0  0  0  0  0  0  0  0
    3.7665    0.0836    0.0813 C   0  0  0  0  0  0  0  0  0  0  0  0
    4.8549   -0.9016   -0.3338 C   0  0  0  0  0  0  0  0  0  0  0  0
    6.2257   -0.4353    0.0897 C   0  0  0  0  0  0  0  0  0  0  0  0
   -2.3789   -0.5730   -1.2896 H   0  0  0  0  0  0  0  0  0  0  0  0
   -2.2358   -0.0003    1.2872 H   0  0  0  0  0  0  0  0  0  0  0  0
   -4.8135   -1.1092   -1.2673 H   0  0  0  0  0  0  0  0  0  0  0  0
   -0.0505    0.0797   -1.4124 H   0  0  0  0  0  0  0  0  0  0  0  0
   -0.2101   -0.7736    0.1514 H   0  0  0  0  0  0  0  0  0  0  0  0
   -3.0665   -2.5143    0.1418 H   0  0  0  0  0  0  0  0  0  0  0  0
   -3.8552   -1.7578    1.5525 H   0  0  0  0  0  0  0  0  0  0  0  0
    2.3579   -0.4673   -1.4527 H   0  0  0  0  0  0  0  0  0  0  0  0
    2.1562   -1.3484    0.0730 H   0  0  0  0  0  0  0  0  0  0  0  0
    1.4156    0.7182    1.0750 H   0  0  0  0  0  0  0  0  0  0  0  0
    3.7870    0.2067    1.1724 H   0  0  0  0  0  0  0  0  0  0  0  0
    3.9848    1.0711   -0.3468 H   0  0  0  0  0  0  0  0  0  0  0  0
   -2.7354    1.5791   -1.9218 H   0  0  0  0  0  0  0  0  0  0  0  0
   -3.3159    2.4061    0.2425 H   0  0  0  0  0  0  0  0  0  0  0  0
    4.8581   -1.0190   -1.4229 H   0  0  0  0  0  0  0  0  0  0  0  0
    4.6671   -1.8763    0.1296 H   0  0  0  0  0  0  0  0  0  0  0  0
   -5.4189    0.7941   -0.1866 H   0  0  0  0  0  0  0  0  0  0  0  0
   -4.7601   -3.7437    0.9774 H   0  0  0  0  0  0  0  0  0  0  0  0
    8.0867   -1.0098    0.0737 H   0  0  0  0  0  0  0  0  0  0  0  0
  1  9  1  0  0  0  0
  1 31  1  0  0  0  0
  2 10  1  0  0  0  0
  2 32  1  0  0  0  0
  3 11  1  0  0  0  0
  3 35  1  0  0  0  0
  4 14  1  0  0  0  0
  4 36  1  0  0  0  0
  5 12  2  0  0  0  0
  6 18  1  0  0  0  0
  6 37  1  0  0  0  0
  7 18  2  0  0  0  0
  8 13  1  0  0  0  0
  8 15  1  0  0  0  0
  8 28  1  0  0  0  0
  9 10  1  0  0  0  0
  9 11  1  0  0  0  0
  9 19  1  0  0  0  0
 10 12  1  0  0  0  0
 10 20  1  0  0  0  0
 11 14  1  0  0  0  0
 11 21  1  0  0  0  0
 12 13  1  0  0  0  0
 13 22  1  0  0  0  0
 13 23  1  0  0  0  0
 14 24  1  0  0  0  0
 14 25  1  0  0  0  0
 15 16  1  0  0  0  0
 15 26  1  0  0  0  0
 15 27  1  0  0  0  0
 16 17  1  0  0  0  0
 16 29  1  0  0  0  0
 16 30  1  0  0  0  0
 17 18  1  0  0  0  0
 17 33  1  0  0  0  0
 17 34  1  0  0  0  0
M  END
> <PUBCHEM_COMPOUND_CID>
101040890

> <PUBCHEM_CONFORMER_RMSD>
0.8

> <PUBCHEM_CONFORMER_DIVERSEORDER>
1
112
110
70
51
64
66
84
146
20
190
124
99
170
141
35
114
89
197
60
121
198
172
83
168
71
82
127
100
105
55
18
50
108
199
69
189
131
62
95
13
115
164
30
22
94
153
151
156
88
122
200
15
104
202
29
73
201
169
80
68
63
40
56
204
129
175
161
91
150
81
37
72
119
38
120
188
123
162
178
6
196
67
167
107
42
140
157
92
39
174
186
171
111
183
96
93
203
179
166
138
101
65
79
173
24
90
195
23
180
182
44
28
61
134
85
176
31
205
143
185
11
118
57
132
177
49
145
54
194
34
7
26
144
77
109
33
25
137
58
78
74
87
125
98
207
130
27
181
117
128
187
147
142
148
47
116
133
48
19
192
75
14
206
155
135
43
86
126
36
59
154
152
149
45
136
191
97
158
5
8
193
106
10
41
46
76
21
52
32
16
184
103
17
2
12
3
102
160
139
113
163
53
4
9
165
159

> <PUBCHEM_MMFF94_PARTIAL_CHARGES>
23
1 -0.68
10 0.34
11 0.28
12 0.45
13 0.33
14 0.28
15 0.27
17 0.06
18 0.66
2 -0.68
28 0.36
3 -0.68
31 0.4
32 0.4
35 0.4
36 0.4
37 0.5
4 -0.68
5 -0.57
6 -0.65
7 -0.57
8 -0.9
9 0.28

> <PUBCHEM_EFFECTIVE_ROTOR_COUNT>
10

> <PUBCHEM_PHARMACOPHORE_FEATURES>
14
1 1 acceptor
1 1 donor
1 2 acceptor
1 2 donor
1 3 acceptor
1 3 donor
1 4 acceptor
1 4 donor
1 5 acceptor
1 6 acceptor
1 7 acceptor
1 8 cation
1 8 donor
3 6 7 18 anion

> <PUBCHEM_HEAVY_ATOM_COUNT>
18

> <PUBCHEM_ATOM_DEF_STEREO_COUNT>
3

> <PUBCHEM_ATOM_UDEF_STEREO_COUNT>
0

> <PUBCHEM_BOND_DEF_STEREO_COUNT>
0

> <PUBCHEM_BOND_UDEF_STEREO_COUNT>
0

> <PUBCHEM_ISOTOPIC_ATOM_COUNT>
0

> <PUBCHEM_COMPONENT_COUNT>
1

> <PUBCHEM_CACTVS_TAUTO_COUNT>
2

> <PUBCHEM_CONFORMER_ID>
0605C2FA00000001

> <PUBCHEM_MMFF94_ENERGY>
20.0265

> <PUBCHEM_FEATURE_SELFOVERLAP>
71.146

> <PUBCHEM_SHAPE_FINGERPRINT>
10803635 8 17822283566049725647
11315181 36 18408888438421913120
11858739 19 12973879287765146112
12091667 2 16877947105518773252
12616971 3 17604163561712384348
12760667 363 18339923822744813583
13288520 33 18409730651285541197
13740256 8 18410575127707736449
13911882 115 17917722279406189022
1420 363 18272371966963738382
14211702 104 18335989688325645770
14251718 22 18260265261631219394
14251732 16 18341048610201904960
14251740 79 17313672658347341451
15183329 4 11963385220648128556
15501527 16 8935000378054691958
15716309 27 17775565325828516070
17780758 139 18059861670945918635
17834072 33 18186805798894754732
17844677 252 17203610372397589904
18927931 339 18059858359019601373
19489759 90 16950561060782520140
200 152 16877942720125159428
20281389 69 9439403523688668758
20621476 66 9367349245217943066
21054139 6 17967248715690973642
21150785 3 16443072716298048526
21623969 137 17846785104991740494
220451 1 18041283162905142162
22896161 15 18410293653538036820
23035841 295 18407761430249958467
23081809 10 16515683304697454892
23402539 116 18335138657487197636
23466295 7 17460613647594921683
23559900 14 18337664312631304505
26918003 58 18272089400859580089
270888 7 9798876751720918771
293599 30 9007064560398268262
3014965 18 8574447421911739664
474229 33 18343019987074102886
5104073 3 18059292046776953810
531348 171 17387400260213033062
542803 24 12463564085277878704
7062679 117 18409451375616987594
7495541 125 17774998003962475560

> <PUBCHEM_SHAPE_MULTIPOLES>
324.37
16.71
2.06
0.87
26.22
0.66
0.16
8.3
-0.94
-3.21
-0.42
-0.68
-0.16
0.72

> <PUBCHEM_SHAPE_SELFOVERLAP>
620.551

> <PUBCHEM_SHAPE_VOLUME>
196.8

> <PUBCHEM_COORDINATE_TYPE>
2
5
10