101003257
  -OEChem-05072106003D

 56 58  0     1  0  0  0  0  0999 V2000
    2.8497    0.4506   -0.7433 O   0  0  0  0  0  0  0  0  0  0  0  0
    2.1491    2.5542    0.0325 O   0  0  0  0  0  0  0  0  0  0  0  0
    1.5635   -2.0185   -0.6532 O   0  0  0  0  0  0  0  0  0  0  0  0
    1.8229   -2.6698    1.5894 O   0  0  0  0  0  0  0  0  0  0  0  0
   -2.5581   -0.5552    0.3145 O   0  0  0  0  0  0  0  0  0  0  0  0
   -4.2837   -0.3424   -1.2659 O   0  0  0  0  0  0  0  0  0  0  0  0
   -2.8822    3.0323    0.8916 O   0  0  0  0  0  0  0  0  0  0  0  0
   -0.4254    2.9220   -0.3519 O   0  0  0  0  0  0  0  0  0  0  0  0
    1.4631    0.3867   -0.4015 C   0  0  1  0  0  0  0  0  0  0  0  0
    1.1392   -0.9596    0.2097 C   0  0  2  0  0  0  0  0  0  0  0  0
    1.2825    1.5472    0.5505 C   0  0  2  0  0  0  0  0  0  0  0  0
    3.1904    1.8410   -0.6503 C   0  0  0  0  0  0  0  0  0  0  0  0
    1.8834   -1.2462    1.4911 C   0  0  0  0  0  0  0  0  0  0  0  0
    1.8098   -3.1276    0.2271 C   0  0  0  0  0  0  0  0  0  0  0  0
   -0.0926    2.1227    0.5216 C   0  0  0  0  0  0  0  0  0  0  0  0
   -1.0325    1.6624    1.6258 C   0  0  0  0  0  0  0  0  0  0  0  0
   -2.5032    1.6937    1.2078 C   0  0  2  0  0  0  0  0  0  0  0  0
   -2.7517    0.8251   -0.0065 C   0  0  2  0  0  0  0  0  0  0  0  0
    4.4854    1.9704    0.1407 C   0  0  0  0  0  0  0  0  0  0  0  0
    3.3370    2.4187   -2.0524 C   0  0  0  0  0  0  0  0  0  0  0  0
   -4.1757    0.8618   -0.5054 C   0  0  0  0  0  0  0  0  0  0  0  0
   -3.3953   -1.2648   -0.6136 C   0  0  0  0  0  0  0  0  0  0  0  0
    3.1676   -3.7271   -0.1159 C   0  0  0  0  0  0  0  0  0  0  0  0
    0.6952   -4.1540    0.0690 C   0  0  0  0  0  0  0  0  0  0  0  0
   -2.5242   -1.9320   -1.6701 C   0  0  0  0  0  0  0  0  0  0  0  0
   -4.2140   -2.2917    0.1587 C   0  0  0  0  0  0  0  0  0  0  0  0
    0.9003    0.5178   -1.3345 H   0  0  0  0  0  0  0  0  0  0  0  0
    0.0607   -1.0709    0.3625 H   0  0  0  0  0  0  0  0  0  0  0  0
    1.6039    1.3607    1.5788 H   0  0  0  0  0  0  0  0  0  0  0  0
    2.9400   -0.9602    1.4516 H   0  0  0  0  0  0  0  0  0  0  0  0
    1.4224   -0.7986    2.3753 H   0  0  0  0  0  0  0  0  0  0  0  0
   -0.7596    0.6482    1.9336 H   0  0  0  0  0  0  0  0  0  0  0  0
   -0.8654    2.3325    2.4770 H   0  0  0  0  0  0  0  0  0  0  0  0
   -3.1162    1.3551    2.0516 H   0  0  0  0  0  0  0  0  0  0  0  0
   -2.0878    1.0700   -0.8437 H   0  0  0  0  0  0  0  0  0  0  0  0
    4.3642    1.5490    1.1453 H   0  0  0  0  0  0  0  0  0  0  0  0
    4.7743    3.0195    0.2628 H   0  0  0  0  0  0  0  0  0  0  0  0
    5.3028    1.4245   -0.3418 H   0  0  0  0  0  0  0  0  0  0  0  0
    2.3961    2.3253   -2.6069 H   0  0  0  0  0  0  0  0  0  0  0  0
    4.1036    1.8854   -2.6241 H   0  0  0  0  0  0  0  0  0  0  0  0
    3.5871    3.4842   -2.0195 H   0  0  0  0  0  0  0  0  0  0  0  0
   -4.9069    0.8139    0.3095 H   0  0  0  0  0  0  0  0  0  0  0  0
   -4.3950    1.7285   -1.1347 H   0  0  0  0  0  0  0  0  0  0  0  0
    3.9581   -2.9758   -0.0059 H   0  0  0  0  0  0  0  0  0  0  0  0
    3.4159   -4.5583    0.5522 H   0  0  0  0  0  0  0  0  0  0  0  0
    3.1973   -4.0765   -1.1533 H   0  0  0  0  0  0  0  0  0  0  0  0
    0.6063   -4.4893   -0.9695 H   0  0  0  0  0  0  0  0  0  0  0  0
    0.8599   -5.0220    0.7160 H   0  0  0  0  0  0  0  0  0  0  0  0
   -0.2694   -3.7204    0.3557 H   0  0  0  0  0  0  0  0  0  0  0  0
   -1.9359   -1.1830   -2.2126 H   0  0  0  0  0  0  0  0  0  0  0  0
   -3.1323   -2.4630   -2.4099 H   0  0  0  0  0  0  0  0  0  0  0  0
   -1.8153   -2.6319   -1.2179 H   0  0  0  0  0  0  0  0  0  0  0  0
   -4.8309   -1.7988    0.9188 H   0  0  0  0  0  0  0  0  0  0  0  0
   -3.5668   -3.0042    0.6810 H   0  0  0  0  0  0  0  0  0  0  0  0
   -4.8925   -2.8390   -0.5038 H   0  0  0  0  0  0  0  0  0  0  0  0
   -2.7244    3.5755    1.6826 H   0  0  0  0  0  0  0  0  0  0  0  0
  1  9  1  0  0  0  0
  1 12  1  0  0  0  0
  2 11  1  0  0  0  0
  2 12  1  0  0  0  0
  3 10  1  0  0  0  0
  3 14  1  0  0  0  0
  4 13  1  0  0  0  0
  4 14  1  0  0  0  0
  5 18  1  0  0  0  0
  5 22  1  0  0  0  0
  6 21  1  0  0  0  0
  6 22  1  0  0  0  0
  7 17  1  0  0  0  0
  7 56  1  0  0  0  0
  8 15  2  0  0  0  0
  9 10  1  0  0  0  0
  9 11  1  0  0  0  0
  9 27  1  0  0  0  0
 10 13  1  0  0  0  0
 10 28  1  0  0  0  0
 11 15  1  0  0  0  0
 11 29  1  0  0  0  0
 12 19  1  0  0  0  0
 12 20  1  0  0  0  0
 13 30  1  0  0  0  0
 13 31  1  0  0  0  0
 14 23  1  0  0  0  0
 14 24  1  0  0  0  0
 15 16  1  0  0  0  0
 16 17  1  0  0  0  0
 16 32  1  0  0  0  0
 16 33  1  0  0  0  0
 17 18  1  0  0  0  0
 17 34  1  0  0  0  0
 18 21  1  0  0  0  0
 18 35  1  0  0  0  0
 19 36  1  0  0  0  0
 19 37  1  0  0  0  0
 19 38  1  0  0  0  0
 20 39  1  0  0  0  0
 20 40  1  0  0  0  0
 20 41  1  0  0  0  0
 21 42  1  0  0  0  0
 21 43  1  0  0  0  0
 22 25  1  0  0  0  0
 22 26  1  0  0  0  0
 23 44  1  0  0  0  0
 23 45  1  0  0  0  0
 23 46  1  0  0  0  0
 24 47  1  0  0  0  0
 24 48  1  0  0  0  0
 24 49  1  0  0  0  0
 25 50  1  0  0  0  0
 25 51  1  0  0  0  0
 25 52  1  0  0  0  0
 26 53  1  0  0  0  0
 26 54  1  0  0  0  0
 26 55  1  0  0  0  0
M  END
> <PUBCHEM_COMPOUND_CID>
101003257

> <PUBCHEM_CONFORMER_RMSD>
1.4

> <PUBCHEM_CONFORMER_DIVERSEORDER>
2
6
51
14
27
9
45
11
35
59
13
16
48
50
63
3
58
10
31
41
39
30
4
55
19
54
23
21
18
40
28
46
1
62
38
12
42
5
44
57
24
34
29
43
22
32
26
56
52
25
53
17
36
37
49
7
61
8
64
47
60
20
15
33

> <PUBCHEM_MMFF94_PARTIAL_CHARGES>
21
1 -0.56
10 0.28
11 0.34
12 0.56
13 0.28
14 0.56
15 0.45
16 0.06
17 0.28
18 0.28
2 -0.56
21 0.28
22 0.56
3 -0.56
4 -0.56
5 -0.56
56 0.4
6 -0.56
7 -0.68
8 -0.57
9 0.28

> <PUBCHEM_EFFECTIVE_ROTOR_COUNT>
8

> <PUBCHEM_PHARMACOPHORE_FEATURES>
15
1 1 acceptor
1 2 acceptor
1 3 acceptor
1 4 acceptor
1 5 acceptor
1 6 acceptor
1 7 acceptor
1 7 donor
1 8 acceptor
3 12 19 20 hydrophobe
3 14 23 24 hydrophobe
3 22 25 26 hydrophobe
5 1 2 9 11 12 rings
5 3 4 10 13 14 rings
5 5 6 18 21 22 rings

> <PUBCHEM_HEAVY_ATOM_COUNT>
26

> <PUBCHEM_ATOM_DEF_STEREO_COUNT>
5

> <PUBCHEM_ATOM_UDEF_STEREO_COUNT>
0

> <PUBCHEM_BOND_DEF_STEREO_COUNT>
0

> <PUBCHEM_BOND_UDEF_STEREO_COUNT>
0

> <PUBCHEM_ISOTOPIC_ATOM_COUNT>
0

> <PUBCHEM_COMPONENT_COUNT>
1

> <PUBCHEM_CACTVS_TAUTO_COUNT>
2

> <PUBCHEM_CONFORMER_ID>
06052FF900000002

> <PUBCHEM_MMFF94_ENERGY>
68.5608

> <PUBCHEM_FEATURE_SELFOVERLAP>
76.268

> <PUBCHEM_SHAPE_FINGERPRINT>
10616163 171 18341896298885175653
10759866 29 18410857659462777461
108634 29 17621884609855579044
11014199 57 18340205181182732083
11069576 57 18269534114188213503
11578080 2 17605547743830523092
12035759 4 18413112749247707062
121448 382 18198914784507118296
12156800 1 10873839325278961007
12403259 327 16483292666362240161
12553582 1 17904767673961029387
12839892 36 18339060645686521224
13004483 165 17181089925733583858
13009979 54 17915183407819511258
13032168 30 18058741345289889488
13083527 12 18116974629782252832
13140716 1 18197784306228110475
13402501 40 17831022695290608299
13911987 19 17973458881348959477
14114211 68 18044677496575429327
14117953 113 17260751742046928837
14251757 5 17398408897364183556
14787075 74 17629481071120389112
14931854 50 18268706293680431383
17909252 39 17559701528094332574
20197701 30 18263915708928740288
20567600 347 18189331428189813106
20600515 1 17264970589864225824
21141583 151 17694787719465756927
21421861 104 18337114453853973337
21634736 98 18339084761500749614
21796203 349 17402655894054832754
22393880 68 18412547604381881652
22907989 373 17468228937731612196
23559900 14 18267854008854677947
238 59 18262523717995354368
2871803 45 18270963569572403293
340366 18 17903357013870788165
3737641 26 18267321978751044571
394222 165 17750503147947772016
404807 78 17102543486964369427
4280585 95 18047181952494140138
4409770 3 17686638135423362512
463206 1 18338244739012030776
57091435 65 18413670214222436526
7226269 152 18053657260032685624

> <PUBCHEM_SHAPE_MULTIPOLES>
488.11
7.71
5.09
1.42
3.83
3.9
-0.13
-1.17
-2.18
-2.98
0.4
-0.12
-0.27
-1.96

> <PUBCHEM_SHAPE_SELFOVERLAP>
1015.59

> <PUBCHEM_SHAPE_VOLUME>
280.1

> <PUBCHEM_COORDINATE_TYPE>
2
5
10