101003258
  -OEChem-05072106003D

 56 58  0     1  0  0  0  0  0999 V2000
   -3.9969    0.0536   -0.2461 O   0  0  0  0  0  0  0  0  0  0  0  0
   -2.9570    2.1558   -0.3746 O   0  0  0  0  0  0  0  0  0  0  0  0
   -0.7462   -1.6023    0.1408 O   0  0  0  0  0  0  0  0  0  0  0  0
   -1.8693   -3.6609   -0.0057 O   0  0  0  0  0  0  0  0  0  0  0  0
    3.4543    0.8181   -0.7610 O   0  0  0  0  0  0  0  0  0  0  0  0
    5.0606   -0.2298    0.5963 O   0  0  0  0  0  0  0  0  0  0  0  0
    2.1215    2.3831    1.1396 O   0  0  0  0  0  0  0  0  0  0  0  0
   -0.9071    2.3260    1.2625 O   0  0  0  0  0  0  0  0  0  0  0  0
   -2.6257   -0.0770    0.1365 C   0  0  1  0  0  0  0  0  0  0  0  0
   -2.0707   -1.3956   -0.3581 C   0  0  2  0  0  0  0  0  0  0  0  0
   -1.9700    1.1331   -0.4892 C   0  0  2  0  0  0  0  0  0  0  0  0
   -4.2153    1.4664   -0.3646 C   0  0  0  0  0  0  0  0  0  0  0  0
   -2.8180   -2.6045    0.1502 C   0  0  0  0  0  0  0  0  0  0  0  0
   -0.5908   -3.0306    0.1775 C   0  0  0  0  0  0  0  0  0  0  0  0
   -0.7790    1.6135    0.2682 C   0  0  0  0  0  0  0  0  0  0  0  0
    0.5750    1.1712   -0.2659 C   0  0  0  0  0  0  0  0  0  0  0  0
    1.6434    1.0765    0.8241 C   0  0  1  0  0  0  0  0  0  0  0  0
    2.8166    0.2312    0.3768 C   0  0  2  0  0  0  0  0  0  0  0  0
   -4.9424    1.7357   -1.6754 C   0  0  0  0  0  0  0  0  0  0  0  0
   -5.0270    1.9526    0.8296 C   0  0  0  0  0  0  0  0  0  0  0  0
    3.9340    0.1493    1.3883 C   0  0  0  0  0  0  0  0  0  0  0  0
    4.8151    0.3610   -0.6906 C   0  0  0  0  0  0  0  0  0  0  0  0
   -0.0262   -3.4225    1.5371 C   0  0  0  0  0  0  0  0  0  0  0  0
    0.3334   -3.4664   -0.9526 C   0  0  0  0  0  0  0  0  0  0  0  0
    5.0486   -0.6947   -1.7638 C   0  0  0  0  0  0  0  0  0  0  0  0
    5.7392    1.5573   -0.8801 C   0  0  0  0  0  0  0  0  0  0  0  0
   -2.5710   -0.0261    1.2324 H   0  0  0  0  0  0  0  0  0  0  0  0
   -2.0321   -1.4239   -1.4549 H   0  0  0  0  0  0  0  0  0  0  0  0
   -1.7435    1.0129   -1.5539 H   0  0  0  0  0  0  0  0  0  0  0  0
   -3.0666   -2.5265    1.2146 H   0  0  0  0  0  0  0  0  0  0  0  0
   -3.7271   -2.8234   -0.4162 H   0  0  0  0  0  0  0  0  0  0  0  0
    0.4618    0.2111   -0.7727 H   0  0  0  0  0  0  0  0  0  0  0  0
    0.8625    1.9104   -1.0237 H   0  0  0  0  0  0  0  0  0  0  0  0
    1.2186    0.6471    1.7394 H   0  0  0  0  0  0  0  0  0  0  0  0
    2.4892   -0.7767    0.0918 H   0  0  0  0  0  0  0  0  0  0  0  0
   -4.3475    1.3781   -2.5239 H   0  0  0  0  0  0  0  0  0  0  0  0
   -5.1084    2.8075   -1.8258 H   0  0  0  0  0  0  0  0  0  0  0  0
   -5.9038    1.2129   -1.7122 H   0  0  0  0  0  0  0  0  0  0  0  0
   -4.4889    1.7587    1.7647 H   0  0  0  0  0  0  0  0  0  0  0  0
   -5.9881    1.4322    0.8957 H   0  0  0  0  0  0  0  0  0  0  0  0
   -5.2037    3.0320    0.7776 H   0  0  0  0  0  0  0  0  0  0  0  0
    4.1690    1.1096    1.8590 H   0  0  0  0  0  0  0  0  0  0  0  0
    3.7514   -0.5938    2.1693 H   0  0  0  0  0  0  0  0  0  0  0  0
   -0.6981   -3.0986    2.3402 H   0  0  0  0  0  0  0  0  0  0  0  0
    0.0832   -4.5084    1.6247 H   0  0  0  0  0  0  0  0  0  0  0  0
    0.9433   -2.9459    1.7166 H   0  0  0  0  0  0  0  0  0  0  0  0
    1.3143   -2.9867   -0.8714 H   0  0  0  0  0  0  0  0  0  0  0  0
    0.4631   -4.5536   -0.9638 H   0  0  0  0  0  0  0  0  0  0  0  0
   -0.0863   -3.1810   -1.9240 H   0  0  0  0  0  0  0  0  0  0  0  0
    4.3805   -1.5504   -1.6129 H   0  0  0  0  0  0  0  0  0  0  0  0
    6.0744   -1.0764   -1.7300 H   0  0  0  0  0  0  0  0  0  0  0  0
    4.8441   -0.2974   -2.7634 H   0  0  0  0  0  0  0  0  0  0  0  0
    5.5559    2.3109   -0.1056 H   0  0  0  0  0  0  0  0  0  0  0  0
    5.5695    2.0416   -1.8474 H   0  0  0  0  0  0  0  0  0  0  0  0
    6.7912    1.2635   -0.8031 H   0  0  0  0  0  0  0  0  0  0  0  0
    1.3631    2.9067    1.4493 H   0  0  0  0  0  0  0  0  0  0  0  0
  1  9  1  0  0  0  0
  1 12  1  0  0  0  0
  2 11  1  0  0  0  0
  2 12  1  0  0  0  0
  3 10  1  0  0  0  0
  3 14  1  0  0  0  0
  4 13  1  0  0  0  0
  4 14  1  0  0  0  0
  5 18  1  0  0  0  0
  5 22  1  0  0  0  0
  6 21  1  0  0  0  0
  6 22  1  0  0  0  0
  7 17  1  0  0  0  0
  7 56  1  0  0  0  0
  8 15  2  0  0  0  0
  9 10  1  0  0  0  0
  9 11  1  0  0  0  0
  9 27  1  0  0  0  0
 10 13  1  0  0  0  0
 10 28  1  0  0  0  0
 11 15  1  0  0  0  0
 11 29  1  0  0  0  0
 12 19  1  0  0  0  0
 12 20  1  0  0  0  0
 13 30  1  0  0  0  0
 13 31  1  0  0  0  0
 14 23  1  0  0  0  0
 14 24  1  0  0  0  0
 15 16  1  0  0  0  0
 16 17  1  0  0  0  0
 16 32  1  0  0  0  0
 16 33  1  0  0  0  0
 17 18  1  0  0  0  0
 17 34  1  0  0  0  0
 18 21  1  0  0  0  0
 18 35  1  0  0  0  0
 19 36  1  0  0  0  0
 19 37  1  0  0  0  0
 19 38  1  0  0  0  0
 20 39  1  0  0  0  0
 20 40  1  0  0  0  0
 20 41  1  0  0  0  0
 21 42  1  0  0  0  0
 21 43  1  0  0  0  0
 22 25  1  0  0  0  0
 22 26  1  0  0  0  0
 23 44  1  0  0  0  0
 23 45  1  0  0  0  0
 23 46  1  0  0  0  0
 24 47  1  0  0  0  0
 24 48  1  0  0  0  0
 24 49  1  0  0  0  0
 25 50  1  0  0  0  0
 25 51  1  0  0  0  0
 25 52  1  0  0  0  0
 26 53  1  0  0  0  0
 26 54  1  0  0  0  0
 26 55  1  0  0  0  0
M  END
> <PUBCHEM_COMPOUND_CID>
101003258

> <PUBCHEM_CONFORMER_RMSD>
1.4

> <PUBCHEM_CONFORMER_DIVERSEORDER>
1
35
24
50
53
5
47
2
18
56
52
22
34
40
12
41
14
13
30
9
29
26
3
21
4
39
33
49
51
20
10
17
38
23
42
15
8
43
28
31
45
25
32
44
37
11
19
7
27
54
16
55
36
6
46
48
57

> <PUBCHEM_MMFF94_PARTIAL_CHARGES>
21
1 -0.56
10 0.28
11 0.34
12 0.56
13 0.28
14 0.56
15 0.45
16 0.06
17 0.28
18 0.28
2 -0.56
21 0.28
22 0.56
3 -0.56
4 -0.56
5 -0.56
56 0.4
6 -0.56
7 -0.68
8 -0.57
9 0.28

> <PUBCHEM_EFFECTIVE_ROTOR_COUNT>
8

> <PUBCHEM_PHARMACOPHORE_FEATURES>
15
1 1 acceptor
1 2 acceptor
1 3 acceptor
1 4 acceptor
1 5 acceptor
1 6 acceptor
1 7 acceptor
1 7 donor
1 8 acceptor
3 12 19 20 hydrophobe
3 14 23 24 hydrophobe
3 22 25 26 hydrophobe
5 1 2 9 11 12 rings
5 3 4 10 13 14 rings
5 5 6 18 21 22 rings

> <PUBCHEM_HEAVY_ATOM_COUNT>
26

> <PUBCHEM_ATOM_DEF_STEREO_COUNT>
5

> <PUBCHEM_ATOM_UDEF_STEREO_COUNT>
0

> <PUBCHEM_BOND_DEF_STEREO_COUNT>
0

> <PUBCHEM_BOND_UDEF_STEREO_COUNT>
0

> <PUBCHEM_ISOTOPIC_ATOM_COUNT>
0

> <PUBCHEM_COMPONENT_COUNT>
1

> <PUBCHEM_CACTVS_TAUTO_COUNT>
2

> <PUBCHEM_CONFORMER_ID>
06052FFA00000001

> <PUBCHEM_MMFF94_ENERGY>
68.507

> <PUBCHEM_FEATURE_SELFOVERLAP>
76.264

> <PUBCHEM_SHAPE_FINGERPRINT>
10366900 7 17561085804622765576
105312 117 18113887235496549253
10759866 29 18186519895791119490
107951 10 17603590711991195347
10906281 52 17917168142404028560
11036077 3 18341342098022917953
12592029 89 18263082128590447585
12616971 3 17240192245298099168
12788726 201 18044935916109938890
12821665 9 17901115427869245404
13135754 10 17315093266161985035
13140716 1 18339358669119612017
13257819 101 16878768402250412317
13402501 40 18201167615244778174
13726171 33 18194704746263902256
13785724 45 17471591287440244195
138480 1 17474102099376893835
13941206 138 18186809054143024162
14251740 79 18271818895171295402
14251757 5 18338244881009513502
14790565 3 18267873774189244313
14840074 17 17604159154928174460
14866123 147 18338800125950699691
15463212 79 18040426724624487704
15840311 113 13335847217238321213
15880784 105 15554439713104722476
15927050 60 18341896243562667631
16752209 62 18336815506771129642
167882 2 18045773486693577119
17093844 170 18342178830803831318
17859628 97 18335414630262629755
19319366 153 17749100072326320000
19591789 44 18410569613544851955
20511986 3 17822557392138412656
20600515 1 18271820028837881581
20642791 178 17761208813120071177
20681677 155 18335140925324849416
20871999 31 18336828709890591220
21279426 13 18341057320037268782
22849339 104 18338530723562283126
23366157 5 17611182659355243603
23559900 14 18272369806659037616
249057 3 18333455335819660100
266924 87 18050275978230740509
3004659 81 18335984165297467406
3298306 158 18339069376916910933
338550 245 18188205408546463338
340366 18 18187087286134564084
3411729 13 18120659029165571793
350125 39 18337112367069527339
3759504 43 18113621187857644843
4015057 19 17560505313501077577
404807 14 14615209182124066405
4058900 60 18044380418272513233
508706 21 18340210781513995166
5265222 85 18336559307951366620
5309563 4 16680066150784738626
532947 4 18196367027308228103
5385378 56 18195532493856642425
58260988 521 18117304556685846195
59755656 215 18411697695474695487
59755656 520 18202006504436669429
6437827 68 18339083684139380142
9709674 26 18055343888745952512

> <PUBCHEM_SHAPE_MULTIPOLES>
488.11
11.16
4.1
1.32
8.16
4.67
0.07
-7.22
3.32
-2.98
-0.47
0.67
-0.08
0.45

> <PUBCHEM_SHAPE_SELFOVERLAP>
1013.733

> <PUBCHEM_SHAPE_VOLUME>
280.8

> <PUBCHEM_COORDINATE_TYPE>
2
5
10