101003253
  -OEChem-05072106003D

 74 77  0     1  0  0  0  0  0999 V2000
   -3.8203    0.7554    1.8251 O   0  0  0  0  0  0  0  0  0  0  0  0
   -4.0411   -1.3696    0.8549 O   0  0  0  0  0  0  0  0  0  0  0  0
   -1.6762   -0.2484   -1.6431 O   0  0  0  0  0  0  0  0  0  0  0  0
    4.1554    0.5997   -0.3960 O   0  0  0  0  0  0  0  0  0  0  0  0
    3.0620    2.5907    0.2023 O   0  0  0  0  0  0  0  0  0  0  0  0
   -2.1607    2.0266   -0.0208 O   0  0  0  0  0  0  0  0  0  0  0  0
   -3.3764   -0.7551   -3.1836 O   0  0  0  0  0  0  0  0  0  0  0  0
    3.2230   -2.0234   -0.4311 O   0  0  0  0  0  0  0  0  0  0  0  0
    3.2107   -2.6150    1.8427 O   0  0  0  0  0  0  0  0  0  0  0  0
    0.5730    2.9154   -0.2027 O   0  0  0  0  0  0  0  0  0  0  0  0
   -2.5174    0.2531    1.5125 C   0  0  1  0  0  0  0  0  0  0  0  0
   -2.7920   -0.7931    0.4446 C   0  0  2  0  0  0  0  0  0  0  0  0
   -1.5912    1.3899    1.1300 C   0  0  1  0  0  0  0  0  0  0  0  0
   -2.9419   -0.2657   -0.9773 C   0  0  2  0  0  0  0  0  0  0  0  0
   -4.6857   -0.3787    1.6712 C   0  0  0  0  0  0  0  0  0  0  0  0
   -0.1991    0.8306    0.7635 C   0  0  0  0  0  0  0  0  0  0  0  0
    2.7543    0.3458   -0.2693 C   0  0  2  0  0  0  0  0  0  0  0  0
    2.2709    1.4767    0.6100 C   0  0  2  0  0  0  0  0  0  0  0  0
    2.5257   -1.0281    0.3233 C   0  0  2  0  0  0  0  0  0  0  0  0
   -3.7844   -1.1432   -1.8709 C   0  0  0  0  0  0  0  0  0  0  0  0
    0.8516    1.8548    0.3540 C   0  0  0  0  0  0  0  0  0  0  0  0
   -1.5190    2.4147    2.2727 C   0  0  0  0  0  0  0  0  0  0  0  0
    4.2845    2.0247   -0.2919 C   0  0  0  0  0  0  0  0  0  0  0  0
   -1.9979   -0.3756   -3.0381 C   0  0  0  0  0  0  0  0  0  0  0  0
   -4.9692   -0.9907    3.0405 C   0  0  0  0  0  0  0  0  0  0  0  0
   -5.9795    0.0709    1.0048 C   0  0  0  0  0  0  0  0  0  0  0  0
    3.0896   -1.1977    1.7132 C   0  0  0  0  0  0  0  0  0  0  0  0
    3.4767   -3.0803    0.5092 C   0  0  0  0  0  0  0  0  0  0  0  0
    4.5677    2.6070   -1.6709 C   0  0  0  0  0  0  0  0  0  0  0  0
    5.4104    2.3387    0.6844 C   0  0  0  0  0  0  0  0  0  0  0  0
   -1.1113   -1.4562   -3.6440 C   0  0  0  0  0  0  0  0  0  0  0  0
   -1.7866    0.9658   -3.7286 C   0  0  0  0  0  0  0  0  0  0  0  0
    2.5533   -4.2541    0.2096 C   0  0  0  0  0  0  0  0  0  0  0  0
    4.9413   -3.4856    0.4001 C   0  0  0  0  0  0  0  0  0  0  0  0
   -2.1445   -0.2450    2.4182 H   0  0  0  0  0  0  0  0  0  0  0  0
   -2.0238   -1.5748    0.4695 H   0  0  0  0  0  0  0  0  0  0  0  0
   -3.4292    0.7108   -1.0374 H   0  0  0  0  0  0  0  0  0  0  0  0
    0.1883    0.3132    1.6509 H   0  0  0  0  0  0  0  0  0  0  0  0
   -0.2276    0.1020   -0.0404 H   0  0  0  0  0  0  0  0  0  0  0  0
    2.3313    0.3921   -1.2810 H   0  0  0  0  0  0  0  0  0  0  0  0
    2.4380    1.3411    1.6818 H   0  0  0  0  0  0  0  0  0  0  0  0
    1.4673   -1.3050    0.3075 H   0  0  0  0  0  0  0  0  0  0  0  0
   -3.5527   -2.2076   -1.7496 H   0  0  0  0  0  0  0  0  0  0  0  0
   -4.8610   -0.9954   -1.7533 H   0  0  0  0  0  0  0  0  0  0  0  0
   -1.1206    1.9658    3.1884 H   0  0  0  0  0  0  0  0  0  0  0  0
   -0.8869    3.2680    2.0053 H   0  0  0  0  0  0  0  0  0  0  0  0
   -2.5059    2.8377    2.4915 H   0  0  0  0  0  0  0  0  0  0  0  0
   -4.0427   -1.3357    3.5130 H   0  0  0  0  0  0  0  0  0  0  0  0
   -5.6286   -1.8611    2.9566 H   0  0  0  0  0  0  0  0  0  0  0  0
   -5.4232   -0.2582    3.7161 H   0  0  0  0  0  0  0  0  0  0  0  0
   -5.7721    0.5438    0.0388 H   0  0  0  0  0  0  0  0  0  0  0  0
   -6.5036    0.8132    1.6160 H   0  0  0  0  0  0  0  0  0  0  0  0
   -6.6460   -0.7768    0.8155 H   0  0  0  0  0  0  0  0  0  0  0  0
    4.0897   -0.7666    1.8304 H   0  0  0  0  0  0  0  0  0  0  0  0
    2.4371   -0.8130    2.5011 H   0  0  0  0  0  0  0  0  0  0  0  0
   -1.6032    2.7894   -0.2494 H   0  0  0  0  0  0  0  0  0  0  0  0
    3.7465    2.3794   -2.3603 H   0  0  0  0  0  0  0  0  0  0  0  0
    5.4797    2.1816   -2.1025 H   0  0  0  0  0  0  0  0  0  0  0  0
    4.6618    3.6972   -1.6307 H   0  0  0  0  0  0  0  0  0  0  0  0
    5.1925    1.9119    1.6702 H   0  0  0  0  0  0  0  0  0  0  0  0
    5.5310    3.4186    0.8191 H   0  0  0  0  0  0  0  0  0  0  0  0
    6.3597    1.9083    0.3490 H   0  0  0  0  0  0  0  0  0  0  0  0
   -0.0506   -1.2062   -3.5364 H   0  0  0  0  0  0  0  0  0  0  0  0
   -1.3403   -1.6112   -4.7034 H   0  0  0  0  0  0  0  0  0  0  0  0
   -1.2698   -2.4137   -3.1347 H   0  0  0  0  0  0  0  0  0  0  0  0
   -2.0340    0.9089   -4.7937 H   0  0  0  0  0  0  0  0  0  0  0  0
   -2.4343    1.7316   -3.2867 H   0  0  0  0  0  0  0  0  0  0  0  0
   -0.7540    1.3122   -3.6152 H   0  0  0  0  0  0  0  0  0  0  0  0
    1.5039   -3.9497    0.2963 H   0  0  0  0  0  0  0  0  0  0  0  0
    2.7104   -5.0747    0.9174 H   0  0  0  0  0  0  0  0  0  0  0  0
    2.6990   -4.6244   -0.8105 H   0  0  0  0  0  0  0  0  0  0  0  0
    5.5934   -2.6303    0.6115 H   0  0  0  0  0  0  0  0  0  0  0  0
    5.1835   -3.8337   -0.6095 H   0  0  0  0  0  0  0  0  0  0  0  0
    5.1918   -4.2698    1.1221 H   0  0  0  0  0  0  0  0  0  0  0  0
  1 11  1  0  0  0  0
  1 15  1  0  0  0  0
  2 12  1  0  0  0  0
  2 15  1  0  0  0  0
  3 14  1  0  0  0  0
  3 24  1  0  0  0  0
  4 17  1  0  0  0  0
  4 23  1  0  0  0  0
  5 18  1  0  0  0  0
  5 23  1  0  0  0  0
  6 13  1  0  0  0  0
  6 56  1  0  0  0  0
  7 20  1  0  0  0  0
  7 24  1  0  0  0  0
  8 19  1  0  0  0  0
  8 28  1  0  0  0  0
  9 27  1  0  0  0  0
  9 28  1  0  0  0  0
 10 21  2  0  0  0  0
 11 12  1  0  0  0  0
 11 13  1  0  0  0  0
 11 35  1  0  0  0  0
 12 14  1  0  0  0  0
 12 36  1  0  0  0  0
 13 16  1  0  0  0  0
 13 22  1  0  0  0  0
 14 20  1  0  0  0  0
 14 37  1  0  0  0  0
 15 25  1  0  0  0  0
 15 26  1  0  0  0  0
 16 21  1  0  0  0  0
 16 38  1  0  0  0  0
 16 39  1  0  0  0  0
 17 18  1  0  0  0  0
 17 19  1  0  0  0  0
 17 40  1  0  0  0  0
 18 21  1  0  0  0  0
 18 41  1  0  0  0  0
 19 27  1  0  0  0  0
 19 42  1  0  0  0  0
 20 43  1  0  0  0  0
 20 44  1  0  0  0  0
 22 45  1  0  0  0  0
 22 46  1  0  0  0  0
 22 47  1  0  0  0  0
 23 29  1  0  0  0  0
 23 30  1  0  0  0  0
 24 31  1  0  0  0  0
 24 32  1  0  0  0  0
 25 48  1  0  0  0  0
 25 49  1  0  0  0  0
 25 50  1  0  0  0  0
 26 51  1  0  0  0  0
 26 52  1  0  0  0  0
 26 53  1  0  0  0  0
 27 54  1  0  0  0  0
 27 55  1  0  0  0  0
 28 33  1  0  0  0  0
 28 34  1  0  0  0  0
 29 57  1  0  0  0  0
 29 58  1  0  0  0  0
 29 59  1  0  0  0  0
 30 60  1  0  0  0  0
 30 61  1  0  0  0  0
 30 62  1  0  0  0  0
 31 63  1  0  0  0  0
 31 64  1  0  0  0  0
 31 65  1  0  0  0  0
 32 66  1  0  0  0  0
 32 67  1  0  0  0  0
 32 68  1  0  0  0  0
 33 69  1  0  0  0  0
 33 70  1  0  0  0  0
 33 71  1  0  0  0  0
 34 72  1  0  0  0  0
 34 73  1  0  0  0  0
 34 74  1  0  0  0  0
M  END
> <PUBCHEM_COMPOUND_CID>
101003253

> <PUBCHEM_CONFORMER_RMSD>
1.4

> <PUBCHEM_CONFORMER_DIVERSEORDER>
2
69
44
18
9
53
31
41
55
77
72
30
27
65
13
67
66
16
60
64
14
20
61
80
7
29
74
24
39
57
50
15
46
58
21
45
28
78
75
36
42
54
10
37
51
17
52
22
56
68
23
40
19
38
70
1
34
32
43
11
33
26
76
79
48
71
3
4
47
59
63
49
6
73
25
12
8
62
35
5

> <PUBCHEM_MMFF94_PARTIAL_CHARGES>
26
1 -0.56
10 -0.57
11 0.28
12 0.28
13 0.28
14 0.28
15 0.56
16 0.06
17 0.28
18 0.34
19 0.28
2 -0.56
20 0.28
21 0.45
23 0.56
24 0.56
27 0.28
28 0.56
3 -0.56
4 -0.56
5 -0.56
56 0.4
6 -0.68
7 -0.56
8 -0.56
9 -0.56

> <PUBCHEM_EFFECTIVE_ROTOR_COUNT>
10

> <PUBCHEM_PHARMACOPHORE_FEATURES>
19
1 1 acceptor
1 10 acceptor
1 2 acceptor
1 3 acceptor
1 4 acceptor
1 5 acceptor
1 6 acceptor
1 6 donor
1 7 acceptor
1 8 acceptor
1 9 acceptor
3 15 25 26 hydrophobe
3 23 29 30 hydrophobe
3 24 31 32 hydrophobe
3 28 33 34 hydrophobe
5 1 2 11 12 15 rings
5 3 7 14 20 24 rings
5 4 5 17 18 23 rings
5 8 9 19 27 28 rings

> <PUBCHEM_HEAVY_ATOM_COUNT>
34

> <PUBCHEM_ATOM_DEF_STEREO_COUNT>
7

> <PUBCHEM_ATOM_UDEF_STEREO_COUNT>
0

> <PUBCHEM_BOND_DEF_STEREO_COUNT>
0

> <PUBCHEM_BOND_UDEF_STEREO_COUNT>
0

> <PUBCHEM_ISOTOPIC_ATOM_COUNT>
0

> <PUBCHEM_COMPONENT_COUNT>
1

> <PUBCHEM_CACTVS_TAUTO_COUNT>
2

> <PUBCHEM_CONFORMER_ID>
06052FF500000002

> <PUBCHEM_MMFF94_ENERGY>
111.7039

> <PUBCHEM_FEATURE_SELFOVERLAP>
96.626

> <PUBCHEM_SHAPE_FINGERPRINT>
10369192 42 17679031628083654020
10764073 3 17976552611513251989
11049842 53 14202506483690125952
11135926 11 18335980973830869880
11578080 2 17603867754271545060
11991303 11 17389399405240419510
12128747 34 18260838073051586153
12160290 23 16343405263941667565
12422481 6 17630059161291542203
12553582 1 17202183304487383597
12633046 712 17825955814538158382
12788726 201 17632570582803136621
13583140 156 18340210786373302041
13911987 19 17971193866480314180
14251757 17 17387106720625507356
14725015 67 15604005306215733811
14840074 17 17988658427344409229
14910302 57 17240203205569257683
150020 26 16555673525340733654
15403338 16 18338806607034769643
15537594 2 18130796693059551065
17809404 112 17900503883954132874
19319366 153 18198916974956231136
20511986 3 17846212297587201865
20775530 9 18196926678732359634
21285901 2 17022906778269239825
23516275 137 16912333283895767982
235170 7 17458620150828492460
23557571 272 15864066589505987132
23598288 3 18059856117284439129
25222932 49 18053965097413404635
46194498 28 17095816506956661100
469060 322 17388812273503491487
484985 159 17246956225361528987
5265222 85 15480997950256065068
613672 6 17829025642866863154
7399639 24 17385722542913086718

> <PUBCHEM_SHAPE_MULTIPOLES>
641.01
11.61
3.9
3.34
0.17
2.25
-3.38
1.54
4.11
-7.39
0.8
4.92
0.58
-1.97

> <PUBCHEM_SHAPE_SELFOVERLAP>
1347.841

> <PUBCHEM_SHAPE_VOLUME>
364

> <PUBCHEM_COORDINATE_TYPE>
2
5
10