101479485
  -OEChem-05072106003D

 48 49  0     1  0  0  0  0  0999 V2000
    2.4523    0.9722    1.8807 O   0  0  0  0  0  0  0  0  0  0  0  0
   -0.0356    0.0722    1.9426 O   0  0  0  0  0  0  0  0  0  0  0  0
    3.1269   -1.6254    1.4154 O   0  0  0  0  0  0  0  0  0  0  0  0
    4.9295    0.4292    0.6850 O   0  0  0  0  0  0  0  0  0  0  0  0
    5.4603    0.3597   -2.2853 O   0  0  0  0  0  0  0  0  0  0  0  0
   -1.5780   -0.2752   -0.3038 N   0  0  3  0  0  0  0  0  0  0  0  0
   -2.5221   -1.3623   -0.3027 C   0  0  0  0  0  0  0  0  0  0  0  0
   -2.3549   -2.2444   -1.5309 C   0  0  0  0  0  0  0  0  0  0  0  0
   -2.2661   -2.3311    0.8426 C   0  0  0  0  0  0  0  0  0  0  0  0
   -3.0019   -3.5661   -1.1304 C   0  0  0  0  0  0  0  0  0  0  0  0
   -2.9534   -3.6174    0.3979 C   0  0  0  0  0  0  0  0  0  0  0  0
   -0.1714   -0.5814   -0.3719 C   0  0  0  0  0  0  0  0  0  0  0  0
   -2.0386    1.0490   -0.2467 C   0  0  0  0  0  0  0  0  0  0  0  0
    0.5314   -0.0333    0.8543 C   0  0  0  0  0  0  0  0  0  0  0  0
    1.9926    0.3787    0.6756 C   0  0  2  0  0  0  0  0  0  0  0  0
    2.8927   -0.7962    0.2694 C   0  0  1  0  0  0  0  0  0  0  0  0
   -3.2330    1.3444    0.4104 C   0  0  0  0  0  0  0  0  0  0  0  0
   -1.3021    2.0700   -0.8472 C   0  0  0  0  0  0  0  0  0  0  0  0
    4.2644   -0.3783   -0.2937 C   0  0  1  0  0  0  0  0  0  0  0  0
   -3.6910    2.6609    0.4669 C   0  0  0  0  0  0  0  0  0  0  0  0
   -1.7599    3.3864   -0.7906 C   0  0  0  0  0  0  0  0  0  0  0  0
    4.2126    0.4066   -1.6040 C   0  0  0  0  0  0  0  0  0  0  0  0
   -2.9545    3.6818   -0.1336 C   0  0  0  0  0  0  0  0  0  0  0  0
   -3.5727   -1.0495   -0.2862 H   0  0  0  0  0  0  0  0  0  0  0  0
   -1.3124   -2.4301   -1.8080 H   0  0  0  0  0  0  0  0  0  0  0  0
   -2.8388   -1.8098   -2.4125 H   0  0  0  0  0  0  0  0  0  0  0  0
   -1.2079   -2.5429    1.0227 H   0  0  0  0  0  0  0  0  0  0  0  0
   -2.6775   -1.9600    1.7875 H   0  0  0  0  0  0  0  0  0  0  0  0
   -2.4814   -4.4170   -1.5815 H   0  0  0  0  0  0  0  0  0  0  0  0
   -4.0433   -3.6015   -1.4706 H   0  0  0  0  0  0  0  0  0  0  0  0
   -3.9722   -3.6644    0.7998 H   0  0  0  0  0  0  0  0  0  0  0  0
   -2.4184   -4.5020    0.7581 H   0  0  0  0  0  0  0  0  0  0  0  0
    0.0532   -1.6518   -0.3993 H   0  0  0  0  0  0  0  0  0  0  0  0
    0.2743   -0.1615   -1.2799 H   0  0  0  0  0  0  0  0  0  0  0  0
    1.9945    1.1592   -0.0922 H   0  0  0  0  0  0  0  0  0  0  0  0
    2.4040   -1.4233   -0.4839 H   0  0  0  0  0  0  0  0  0  0  0  0
   -3.8164    0.5921    0.9325 H   0  0  0  0  0  0  0  0  0  0  0  0
   -0.3764    1.8831   -1.3820 H   0  0  0  0  0  0  0  0  0  0  0  0
    4.8903   -1.2694   -0.4251 H   0  0  0  0  0  0  0  0  0  0  0  0
    3.9724    1.4596   -1.4250 H   0  0  0  0  0  0  0  0  0  0  0  0
    3.4626   -0.0242   -2.2750 H   0  0  0  0  0  0  0  0  0  0  0  0
   -4.6155    2.8930    0.9876 H   0  0  0  0  0  0  0  0  0  0  0  0
   -1.1882    4.1814   -1.2605 H   0  0  0  0  0  0  0  0  0  0  0  0
    2.5135    0.2713    2.5521 H   0  0  0  0  0  0  0  0  0  0  0  0
    2.2636   -1.9530    1.7202 H   0  0  0  0  0  0  0  0  0  0  0  0
   -3.3100    4.7070   -0.0881 H   0  0  0  0  0  0  0  0  0  0  0  0
    4.9636   -0.0839    1.5105 H   0  0  0  0  0  0  0  0  0  0  0  0
    5.3566    0.8695   -3.1069 H   0  0  0  0  0  0  0  0  0  0  0  0
  1 15  1  0  0  0  0
  1 44  1  0  0  0  0
  2 14  2  0  0  0  0
  3 16  1  0  0  0  0
  3 45  1  0  0  0  0
  4 19  1  0  0  0  0
  4 47  1  0  0  0  0
  5 22  1  0  0  0  0
  5 48  1  0  0  0  0
  6  7  1  0  0  0  0
  6 12  1  0  0  0  0
  6 13  1  0  0  0  0
  7  8  1  0  0  0  0
  7  9  1  0  0  0  0
  7 24  1  0  0  0  0
  8 10  1  0  0  0  0
  8 25  1  0  0  0  0
  8 26  1  0  0  0  0
  9 11  1  0  0  0  0
  9 27  1  0  0  0  0
  9 28  1  0  0  0  0
 10 11  1  0  0  0  0
 10 29  1  0  0  0  0
 10 30  1  0  0  0  0
 11 31  1  0  0  0  0
 11 32  1  0  0  0  0
 12 14  1  0  0  0  0
 12 33  1  0  0  0  0
 12 34  1  0  0  0  0
 13 17  2  0  0  0  0
 13 18  1  0  0  0  0
 14 15  1  0  0  0  0
 15 16  1  0  0  0  0
 15 35  1  0  0  0  0
 16 19  1  0  0  0  0
 16 36  1  0  0  0  0
 17 20  1  0  0  0  0
 17 37  1  0  0  0  0
 18 21  2  0  0  0  0
 18 38  1  0  0  0  0
 19 22  1  0  0  0  0
 19 39  1  0  0  0  0
 20 23  2  0  0  0  0
 20 42  1  0  0  0  0
 21 23  1  0  0  0  0
 21 43  1  0  0  0  0
 22 40  1  0  0  0  0
 22 41  1  0  0  0  0
 23 46  1  0  0  0  0
M  END
> <PUBCHEM_COMPOUND_CID>
101479485

> <PUBCHEM_CONFORMER_RMSD>
1

> <PUBCHEM_CONFORMER_DIVERSEORDER>
1
134
71
163
9
101
94
26
160
189
158
146
144
29
90
24
145
87
88
32
77
95
86
23
96
180
177
170
50
70
105
171
168
82
188
76
3
106
63
69
121
156
58
49
45
172
108
52
154
98
85
107
14
73
36
102
132
22
28
194
46
19
135
197
142
152
6
93
184
15
129
190
4
97
89
75
127
178
53
120
126
41
141
43
100
17
65
10
123
151
176
74
162
137
55
113
136
182
44
138
196
150
133
51
122
147
193
186
12
42
48
40
67
16
25
125
116
54
61
181
114
79
124
161
155
195
34
80
187
38
173
153
103
39
99
112
62
131
66
183
148
57
68
91
31
37
110
179
7
11
119
139
166
64
165
92
104
78
140
84
169
27
109
35
143
30
5
167
192
33
47
2
157
128
13
130
111
185
59
21
20
60
115
56
83
191
72
81
174
117
118
149
18
175
8
159
164

> <PUBCHEM_MMFF94_PARTIAL_CHARGES>
28
1 -0.68
12 0.43
13 0.1
14 0.45
15 0.34
16 0.28
17 -0.15
18 -0.15
19 0.28
2 -0.57
20 -0.15
21 -0.15
22 0.28
23 -0.15
3 -0.68
37 0.15
38 0.15
4 -0.68
42 0.15
43 0.15
44 0.4
45 0.4
46 0.15
47 0.4
48 0.4
5 -0.68
6 -0.84
7 0.37

> <PUBCHEM_EFFECTIVE_ROTOR_COUNT>
9

> <PUBCHEM_PHARMACOPHORE_FEATURES>
12
1 1 acceptor
1 1 donor
1 2 acceptor
1 3 acceptor
1 3 donor
1 4 acceptor
1 4 donor
1 5 acceptor
1 5 donor
1 6 cation
5 7 8 9 10 11 rings
6 13 17 18 20 21 23 rings

> <PUBCHEM_HEAVY_ATOM_COUNT>
23

> <PUBCHEM_ATOM_DEF_STEREO_COUNT>
3

> <PUBCHEM_ATOM_UDEF_STEREO_COUNT>
0

> <PUBCHEM_BOND_DEF_STEREO_COUNT>
0

> <PUBCHEM_BOND_UDEF_STEREO_COUNT>
0

> <PUBCHEM_ISOTOPIC_ATOM_COUNT>
0

> <PUBCHEM_COMPONENT_COUNT>
1

> <PUBCHEM_CACTVS_TAUTO_COUNT>
1

> <PUBCHEM_CONFORMER_ID>
060C743D00000001

> <PUBCHEM_MMFF94_ENERGY>
68.2016

> <PUBCHEM_FEATURE_SELFOVERLAP>
60.933

> <PUBCHEM_SHAPE_FINGERPRINT>
10165383 225 18128265484697434153
10391435 84 17915464884100028206
11101153 10 18047187729468025508
12173636 292 18265324015382405453
12553582 1 18191585470034981691
12623949 98 16984631833614072638
12714826 92 18130792295113415926
12788726 201 18335413582617890843
13004483 165 18124851672928875823
13681431 1 17616232016450838119
14178342 30 18264745758339582434
14251757 5 18342187626316786612
15131766 46 15720831058367117292
15163728 17 17836383552777848173
15463212 79 18261100825410785082
15842332 3 17895462653537483290
1813 80 17983022442193230135
18785283 64 17399803696578290593
19591789 44 18051121506940385491
20101258 96 18264784331271932433
20600515 1 17537962099858441769
20645477 70 16271920485702721868
20693207 138 17846221102691612222
21033650 10 17273136783036063456
21120745 212 18265348376674317677
21524375 3 18052524488119776673
22620623 9 18271810141658817447
22849341 161 18122359136251312667
22907989 373 18336816563575515799
23366157 5 17040359017600741625
23557571 272 18196915867766723649
3057174 1 17907564840685408141
340366 18 18046628893866017942
3610482 184 17678770932448300470
3729539 64 17479475442597918878
44062 13 18342184332482961886
458136 41 17765438647796501609
6049 1 17845930839995581984
621550 5 17916035748405674002
633830 44 17385735655991716410
6442390 28 18197776605763458585
6786 2 17981343196227557745
7364860 26 17111833320735711811
7399639 24 17698701929664099360
7615 1 17822274778794428042
7808743 9 18336272254038913716
81228 2 18194093383412090777

> <PUBCHEM_SHAPE_MULTIPOLES>
439
8.85
4.42
1.59
13.86
0.24
0.13
-0.45
2.26
-8.4
0.8
1.53
0.21
-0.75

> <PUBCHEM_SHAPE_SELFOVERLAP>
904.972

> <PUBCHEM_SHAPE_VOLUME>
251.8

> <PUBCHEM_COORDINATE_TYPE>
2
5
10