101526424
  -OEChem-05072106003D

 52 51  0     1  0  0  0  0  0999 V2000
    5.0235   -0.5562    0.7050 O   0  0  0  0  0  0  0  0  0  0  0  0
   -3.7079    1.3613    2.0443 O   0  0  0  0  0  0  0  0  0  0  0  0
    3.2909    0.9624    2.1588 O   0  0  0  0  0  0  0  0  0  0  0  0
   -4.5920   -0.9404    0.8857 O   0  0  0  0  0  0  0  0  0  0  0  0
    5.3839    2.2482    0.8087 O   0  0  0  0  0  0  0  0  0  0  0  0
   -5.9341    1.4497    0.3003 O   0  0  0  0  0  0  0  0  0  0  0  0
    1.6384   -1.0875    1.9042 O   0  0  0  0  0  0  0  0  0  0  0  0
   -2.1633   -1.8587    1.3921 O   0  0  0  0  0  0  0  0  0  0  0  0
    5.2098    3.4369   -1.9598 O   0  0  0  0  0  0  0  0  0  0  0  0
   -5.3581    3.2470   -2.0546 O   0  0  0  0  0  0  0  0  0  0  0  0
    0.5995   -4.2515   -2.4038 O   0  0  0  0  0  0  0  0  0  0  0  0
    0.6085   -4.1392   -0.1345 O   0  0  0  0  0  0  0  0  0  0  0  0
   -0.0091   -1.4643   -0.2690 N   0  0  0  0  0  0  0  0  0  0  0  0
    4.1685    0.3362   -0.0219 C   0  0  1  0  0  0  0  0  0  0  0  0
   -3.5518    1.2430    0.6239 C   0  0  1  0  0  0  0  0  0  0  0  0
    2.9254    0.6409    0.8252 C   0  0  1  0  0  0  0  0  0  0  0  0
   -3.5348   -0.2439    0.2433 C   0  0  1  0  0  0  0  0  0  0  0  0
    1.3363   -0.9274   -0.4856 C   0  0  0  0  0  0  0  0  0  0  0  0
   -0.9734   -0.3858   -0.1053 C   0  0  0  0  0  0  0  0  0  0  0  0
    1.9316   -0.5211    0.8505 C   0  0  0  0  0  0  0  0  0  0  0  0
   -2.2103   -0.9247    0.5906 C   0  0  0  0  0  0  0  0  0  0  0  0
    4.9992    1.5780   -0.3977 C   0  0  1  0  0  0  0  0  0  0  0  0
   -4.6806    2.0542   -0.0402 C   0  0  1  0  0  0  0  0  0  0  0  0
   -0.3914   -2.3357   -1.3826 C   0  0  0  0  0  0  0  0  0  0  0  0
    4.2832    2.5862   -1.2956 C   0  0  0  0  0  0  0  0  0  0  0  0
   -4.5962    2.1512   -1.5630 C   0  0  0  0  0  0  0  0  0  0  0  0
    0.3043   -3.6587   -1.2189 C   0  0  0  0  0  0  0  0  0  0  0  0
    3.8942   -0.1721   -0.9526 H   0  0  0  0  0  0  0  0  0  0  0  0
   -2.6024    1.7248    0.3661 H   0  0  0  0  0  0  0  0  0  0  0  0
    2.3755    1.4982    0.4231 H   0  0  0  0  0  0  0  0  0  0  0  0
   -3.6671   -0.3755   -0.8356 H   0  0  0  0  0  0  0  0  0  0  0  0
    2.0202   -1.6804   -0.8948 H   0  0  0  0  0  0  0  0  0  0  0  0
    1.3224   -0.0747   -1.1747 H   0  0  0  0  0  0  0  0  0  0  0  0
   -0.5900    0.4090    0.5458 H   0  0  0  0  0  0  0  0  0  0  0  0
   -1.2429    0.0651   -1.0676 H   0  0  0  0  0  0  0  0  0  0  0  0
    5.9333    1.2595   -0.8766 H   0  0  0  0  0  0  0  0  0  0  0  0
   -4.7055    3.0627    0.3903 H   0  0  0  0  0  0  0  0  0  0  0  0
   -0.1381   -1.8857   -2.3501 H   0  0  0  0  0  0  0  0  0  0  0  0
   -1.4643   -2.5613   -1.3837 H   0  0  0  0  0  0  0  0  0  0  0  0
    3.6068    3.2222   -0.7155 H   0  0  0  0  0  0  0  0  0  0  0  0
    3.7113    2.0655   -2.0703 H   0  0  0  0  0  0  0  0  0  0  0  0
   -4.9780    1.2423   -2.0391 H   0  0  0  0  0  0  0  0  0  0  0  0
   -3.5598    2.3130   -1.8761 H   0  0  0  0  0  0  0  0  0  0  0  0
    4.5210   -1.3720    0.8709 H   0  0  0  0  0  0  0  0  0  0  0  0
   -2.9497    0.9163    2.4597 H   0  0  0  0  0  0  0  0  0  0  0  0
    3.8333    0.2320    2.5021 H   0  0  0  0  0  0  0  0  0  0  0  0
   -4.5178   -0.7764    1.8414 H   0  0  0  0  0  0  0  0  0  0  0  0
    5.8453    1.5993    1.3672 H   0  0  0  0  0  0  0  0  0  0  0  0
   -5.9794    1.4015    1.2706 H   0  0  0  0  0  0  0  0  0  0  0  0
    4.6923    4.0449   -2.5150 H   0  0  0  0  0  0  0  0  0  0  0  0
   -5.2565    3.2547   -3.0217 H   0  0  0  0  0  0  0  0  0  0  0  0
    1.0695   -5.1036   -2.2795 H   0  0  0  0  0  0  0  0  0  0  0  0
  1 14  1  0  0  0  0
  1 44  1  0  0  0  0
  2 15  1  0  0  0  0
  2 45  1  0  0  0  0
  3 16  1  0  0  0  0
  3 46  1  0  0  0  0
  4 17  1  0  0  0  0
  4 47  1  0  0  0  0
  5 22  1  0  0  0  0
  5 48  1  0  0  0  0
  6 23  1  0  0  0  0
  6 49  1  0  0  0  0
  7 20  2  0  0  0  0
  8 21  2  0  0  0  0
  9 25  1  0  0  0  0
  9 50  1  0  0  0  0
 10 26  1  0  0  0  0
 10 51  1  0  0  0  0
 11 27  1  0  0  0  0
 11 52  1  0  0  0  0
 12 27  2  0  0  0  0
 13 18  1  0  0  0  0
 13 19  1  0  0  0  0
 13 24  1  0  0  0  0
 14 16  1  0  0  0  0
 14 22  1  0  0  0  0
 14 28  1  0  0  0  0
 15 17  1  0  0  0  0
 15 23  1  0  0  0  0
 15 29  1  0  0  0  0
 16 20  1  0  0  0  0
 16 30  1  0  0  0  0
 17 21  1  0  0  0  0
 17 31  1  0  0  0  0
 18 20  1  0  0  0  0
 18 32  1  0  0  0  0
 18 33  1  0  0  0  0
 19 21  1  0  0  0  0
 19 34  1  0  0  0  0
 19 35  1  0  0  0  0
 22 25  1  0  0  0  0
 22 36  1  0  0  0  0
 23 26  1  0  0  0  0
 23 37  1  0  0  0  0
 24 27  1  0  0  0  0
 24 38  1  0  0  0  0
 24 39  1  0  0  0  0
 25 40  1  0  0  0  0
 25 41  1  0  0  0  0
 26 42  1  0  0  0  0
 26 43  1  0  0  0  0
M  END
> <PUBCHEM_COMPOUND_CID>
101526424

> <PUBCHEM_CONFORMER_RMSD>
1.2

> <PUBCHEM_CONFORMER_DIVERSEORDER>
1
20
59
4
35
45
22
68
53
79
29
63
70
47
49
38
31
65
34
69
81
56
67
51
16
71
48
17
76
66
18
41
10
55
40
36
28
72
83
3
11
62
77
75
24
9
50
61
54
43
82
37
19
60
46
8
78
33
58
64
6
73
39
27
74
5
42
80
44
52
21
57
26
23
32
14
25
2
12
30
15
7
13

> <PUBCHEM_MMFF94_PARTIAL_CHARGES>
36
1 -0.68
10 -0.68
11 -0.65
12 -0.57
13 -0.81
14 0.28
15 0.28
16 0.34
17 0.34
18 0.33
19 0.33
2 -0.68
20 0.45
21 0.45
22 0.28
23 0.28
24 0.33
25 0.28
26 0.28
27 0.66
3 -0.68
4 -0.68
44 0.4
45 0.4
46 0.4
47 0.4
48 0.4
49 0.4
5 -0.68
50 0.4
51 0.4
52 0.5
6 -0.68
7 -0.57
8 -0.57
9 -0.68

> <PUBCHEM_EFFECTIVE_ROTOR_COUNT>
14

> <PUBCHEM_PHARMACOPHORE_FEATURES>
22
1 1 acceptor
1 1 donor
1 10 acceptor
1 10 donor
1 11 acceptor
1 12 acceptor
1 13 cation
1 2 acceptor
1 2 donor
1 3 acceptor
1 3 donor
1 4 acceptor
1 4 donor
1 5 acceptor
1 5 donor
1 6 acceptor
1 6 donor
1 7 acceptor
1 8 acceptor
1 9 acceptor
1 9 donor
3 11 12 27 anion

> <PUBCHEM_HEAVY_ATOM_COUNT>
27

> <PUBCHEM_ATOM_DEF_STEREO_COUNT>
6

> <PUBCHEM_ATOM_UDEF_STEREO_COUNT>
0

> <PUBCHEM_BOND_DEF_STEREO_COUNT>
0

> <PUBCHEM_BOND_UDEF_STEREO_COUNT>
0

> <PUBCHEM_ISOTOPIC_ATOM_COUNT>
0

> <PUBCHEM_COMPONENT_COUNT>
1

> <PUBCHEM_CACTVS_TAUTO_COUNT>
1

> <PUBCHEM_CONFORMER_ID>
060D2B9800000001

> <PUBCHEM_MMFF94_ENERGY>
51.8907

> <PUBCHEM_FEATURE_SELFOVERLAP>
111.803

> <PUBCHEM_SHAPE_FINGERPRINT>
105312 117 18130511945723722044
10763959 59 18187927206039290284
12422481 6 17821728316930825884
12596602 18 17458628972876084785
12788726 201 17980464978152875882
14251757 5 17913223232427775232
14251764 30 12534478251711460861
14251764 38 17903064539588457501
15163728 17 18270702911964163345
15475509 35 10086481565743283941
15575132 122 18337112375348310229
17980427 23 18041283261699862023
1813 80 11747224510970184059
21033648 29 18130497638903173720
21120745 212 17545331133988360550
21344244 78 14201692939917600541
21388113 180 18115581522838709349
21756936 100 17898010372661552544
23559900 14 18196374719215191227
2838139 119 18261101946619171885
3057174 1 18060422391284319326
3472631 163 18041272163525766285
469060 322 13769880810460073146
5219985 13 18410293644172895892
57724786 102 18125168130477159081
633830 44 18041275569503339162
7808743 9 18266182914557942552
7970288 3 11455016183955522581

> <PUBCHEM_SHAPE_MULTIPOLES>
480.23
13.05
4.65
1.93
1.34
3.22
-0.27
-16.7
-0.89
-0.84
-3.73
-0.03
-0.18
0.4

> <PUBCHEM_SHAPE_SELFOVERLAP>
943.903

> <PUBCHEM_SHAPE_VOLUME>
285.3

> <PUBCHEM_COORDINATE_TYPE>
2
5
10