101611551
  -OEChem-05072106003D

 37 36  0     1  0  0  0  0  0999 V2000
   -3.3057   -1.4126    1.6335 O   0  0  0  0  0  0  0  0  0  0  0  0
   -3.1800   -1.8026   -1.0598 O   0  0  0  0  0  0  0  0  0  0  0  0
   -5.1211   -0.0481   -0.0542 O   0  0  0  0  0  0  0  0  0  0  0  0
   -0.7013   -2.6027   -0.5981 O   0  0  0  0  0  0  0  0  0  0  0  0
   -4.7948    2.9375    0.2408 O   0  0  0  0  0  0  0  0  0  0  0  0
    2.7967    2.3613   -0.2083 O   0  0  0  0  0  0  0  0  0  0  0  0
    2.0537    1.2415   -2.0355 O   0  0  0  0  0  0  0  0  0  0  0  0
    6.1152   -0.7397    0.5690 O   0  0  0  0  0  0  0  0  0  0  0  0
    4.8191    0.9254    1.4206 O   0  0  0  0  0  0  0  0  0  0  0  0
    1.4424   -0.8918   -0.4163 N   0  0  0  0  0  0  0  0  0  0  0  0
   -2.8902   -0.2994    0.8308 C   0  0  1  0  0  0  0  0  0  0  0  0
   -2.3221   -0.8221   -0.4958 C   0  0  1  0  0  0  0  0  0  0  0  0
   -4.0993    0.6425    0.6751 C   0  0  1  0  0  0  0  0  0  0  0  0
   -0.9224   -1.4185   -0.3419 C   0  0  0  0  0  0  0  0  0  0  0  0
    0.1633   -0.4727    0.1391 C   0  0  0  0  0  0  0  0  0  0  0  0
    2.5137   -0.0028    0.0132 C   0  0  1  0  0  0  0  0  0  0  0  0
   -3.8049    1.9573   -0.0460 C   0  0  0  0  0  0  0  0  0  0  0  0
    3.8639   -0.7195   -0.1123 C   0  0  0  0  0  0  0  0  0  0  0  0
    2.4281    1.2318   -0.8702 C   0  0  0  0  0  0  0  0  0  0  0  0
    4.9457   -0.0648    0.7164 C   0  0  0  0  0  0  0  0  0  0  0  0
   -2.1242    0.2370    1.4011 H   0  0  0  0  0  0  0  0  0  0  0  0
   -2.2272   -0.0141   -1.2286 H   0  0  0  0  0  0  0  0  0  0  0  0
   -4.5252    0.8541    1.6635 H   0  0  0  0  0  0  0  0  0  0  0  0
    0.1697   -0.5011    1.2341 H   0  0  0  0  0  0  0  0  0  0  0  0
   -0.0921    0.5380   -0.1959 H   0  0  0  0  0  0  0  0  0  0  0  0
    2.3517    0.2919    1.0582 H   0  0  0  0  0  0  0  0  0  0  0  0
   -3.7827    1.8169   -1.1315 H   0  0  0  0  0  0  0  0  0  0  0  0
   -2.8435    2.3640    0.2838 H   0  0  0  0  0  0  0  0  0  0  0  0
    1.6342   -1.8416   -0.0972 H   0  0  0  0  0  0  0  0  0  0  0  0
    4.1947   -0.7371   -1.1575 H   0  0  0  0  0  0  0  0  0  0  0  0
    3.7819   -1.7514    0.2519 H   0  0  0  0  0  0  0  0  0  0  0  0
   -2.5216   -1.9638    1.7970 H   0  0  0  0  0  0  0  0  0  0  0  0
   -3.3208   -2.4940   -0.3906 H   0  0  0  0  0  0  0  0  0  0  0  0
   -5.3053   -0.8778    0.4187 H   0  0  0  0  0  0  0  0  0  0  0  0
   -4.5454    3.7449   -0.2404 H   0  0  0  0  0  0  0  0  0  0  0  0
    2.7295    3.1567   -0.7785 H   0  0  0  0  0  0  0  0  0  0  0  0
    6.8386   -0.3366    1.0948 H   0  0  0  0  0  0  0  0  0  0  0  0
  1 11  1  0  0  0  0
  1 32  1  0  0  0  0
  2 12  1  0  0  0  0
  2 33  1  0  0  0  0
  3 13  1  0  0  0  0
  3 34  1  0  0  0  0
  4 14  2  0  0  0  0
  5 17  1  0  0  0  0
  5 35  1  0  0  0  0
  6 19  1  0  0  0  0
  6 36  1  0  0  0  0
  7 19  2  0  0  0  0
  8 20  1  0  0  0  0
  8 37  1  0  0  0  0
  9 20  2  0  0  0  0
 10 15  1  0  0  0  0
 10 16  1  0  0  0  0
 10 29  1  0  0  0  0
 11 12  1  0  0  0  0
 11 13  1  0  0  0  0
 11 21  1  0  0  0  0
 12 14  1  0  0  0  0
 12 22  1  0  0  0  0
 13 17  1  0  0  0  0
 13 23  1  0  0  0  0
 14 15  1  0  0  0  0
 15 24  1  0  0  0  0
 15 25  1  0  0  0  0
 16 18  1  0  0  0  0
 16 19  1  0  0  0  0
 16 26  1  0  0  0  0
 17 27  1  0  0  0  0
 17 28  1  0  0  0  0
 18 20  1  0  0  0  0
 18 30  1  0  0  0  0
 18 31  1  0  0  0  0
M  END
> <PUBCHEM_COMPOUND_CID>
101611551

> <PUBCHEM_CONFORMER_RMSD>
1

> <PUBCHEM_CONFORMER_DIVERSEORDER>
1
13
22
7
46
8
39
17
20
43
33
27
44
40
12
30
48
16
10
9
31
34
15
6
11
19
41
23
32
4
14
35
36
21
26
47
25
5
38
37
45
24
2
29
42
28
3
18

> <PUBCHEM_MMFF94_PARTIAL_CHARGES>
27
1 -0.68
10 -0.9
11 0.28
12 0.34
13 0.28
14 0.45
15 0.33
16 0.33
17 0.28
18 0.06
19 0.66
2 -0.68
20 0.66
29 0.36
3 -0.68
32 0.4
33 0.4
34 0.4
35 0.4
36 0.5
37 0.5
4 -0.57
5 -0.68
6 -0.65
7 -0.57
8 -0.65
9 -0.57

> <PUBCHEM_EFFECTIVE_ROTOR_COUNT>
10

> <PUBCHEM_PHARMACOPHORE_FEATURES>
17
1 1 acceptor
1 1 donor
1 10 cation
1 10 donor
1 2 acceptor
1 2 donor
1 3 acceptor
1 3 donor
1 4 acceptor
1 5 acceptor
1 5 donor
1 6 acceptor
1 7 acceptor
1 8 acceptor
1 9 acceptor
3 6 7 19 anion
3 8 9 20 anion

> <PUBCHEM_HEAVY_ATOM_COUNT>
20

> <PUBCHEM_ATOM_DEF_STEREO_COUNT>
4

> <PUBCHEM_ATOM_UDEF_STEREO_COUNT>
0

> <PUBCHEM_BOND_DEF_STEREO_COUNT>
0

> <PUBCHEM_BOND_UDEF_STEREO_COUNT>
0

> <PUBCHEM_ISOTOPIC_ATOM_COUNT>
0

> <PUBCHEM_COMPONENT_COUNT>
1

> <PUBCHEM_CACTVS_TAUTO_COUNT>
2

> <PUBCHEM_CONFORMER_ID>
060E781F00000001

> <PUBCHEM_MMFF94_ENERGY>
29.2738

> <PUBCHEM_FEATURE_SELFOVERLAP>
86.435

> <PUBCHEM_SHAPE_FINGERPRINT>
10014705 185 17989202659423886987
11405975 8 17894636992897259955
11552529 35 17097795713433037539
12403259 118 18334300872639665793
12633257 1 17095250202491440897
12670546 177 11887951051332204600
13103583 49 17385444301983524720
13675066 3 18412832390904763434
14123255 352 18059852852861055968
14251718 22 9799683805775747586
14251732 14 10881976999972643306
14251732 17 18342455889994803924
14251758 9 18409168771121913534
14466204 15 18337106757283258088
15238133 3 17895486816780851868
15375358 24 15697726986225836934
15527383 91 17894348895608544876
18186145 218 17631473248523495119
18222031 100 12901827285015280899
19078846 21 18186526518503946564
20279233 1 15410906183738289214
20645477 56 17917715733569840351
20775530 9 10518543374546133813
20871999 31 10735877249169268859
21033648 29 18201423771267778064
21503847 285 18040437711293300896
21524375 3 18413394233041601831
21864079 5 18265347264008834325
23402539 116 18060411422074396910
23557571 272 16988560263958085087
23559900 14 17489874817590568566
2838139 119 18336820906484206093
312423 11 17678182796058074902
351380 180 18407760326728160961
5104073 3 17968663821019631824
6328613 192 18335145319456500412
6430166 295 18411702071238864975
7495541 125 13912322400394143726
9971528 1 18412827976163543574

> <PUBCHEM_SHAPE_MULTIPOLES>
353.79
12.29
2.35
1.18
5.09
0.84
-0.08
3.58
3.68
-2.24
-0.37
0.34
0.04
-0.43

> <PUBCHEM_SHAPE_SELFOVERLAP>
692.676

> <PUBCHEM_SHAPE_VOLUME>
209.8

> <PUBCHEM_COORDINATE_TYPE>
2
5
10