101708615
  -OEChem-05072106003D

 66 67  0     1  0  0  0  0  0999 V2000
    0.1017   -2.5270   -1.0250 O   0  0  0  0  0  0  0  0  0  0  0  0
    1.3976    0.6106    0.3302 O   0  0  0  0  0  0  0  0  0  0  0  0
    2.8265    1.5229   -1.2941 O   0  0  0  0  0  0  0  0  0  0  0  0
   -0.6894   -1.2372    0.7702 O   0  0  0  0  0  0  0  0  0  0  0  0
    1.6451   -1.6796    2.1212 O   0  0  0  0  0  0  0  0  0  0  0  0
    2.2047    2.5165    2.1154 O   0  0  0  0  0  0  0  0  0  0  0  0
    1.9179   -4.6237    1.2119 O   0  0  0  0  0  0  0  0  0  0  0  0
    5.1655    2.4741    1.2202 O   0  0  0  0  0  0  0  0  0  0  0  0
   -0.0694    3.0211    0.3583 O   0  0  0  0  0  0  0  0  0  0  0  0
   -1.2101   -4.8234   -1.9686 O   0  0  0  0  0  0  0  0  0  0  0  0
    4.8843    0.0658   -2.5297 O   0  0  0  0  0  0  0  0  0  0  0  0
   -2.9397   -0.6570    2.0746 O   0  0  0  0  0  0  0  0  0  0  0  0
   -5.3531   -0.1995    1.1263 O   0  0  0  0  0  0  0  0  0  0  0  0
   -3.8474    0.4842   -2.0789 O   0  0  0  0  0  0  0  0  0  0  0  0
   -4.1971    2.4931    0.9750 O   0  0  0  0  0  0  0  0  0  0  0  0
   -2.9594    4.3436   -0.6958 O   0  0  0  0  0  0  0  0  0  0  0  0
    0.4553   -1.5557   -0.0229 C   0  0  1  0  0  0  0  0  0  0  0  0
    1.9139    1.8228   -0.2218 C   0  0  2  0  0  0  0  0  0  0  0  0
    1.4938   -2.2625    0.8422 C   0  0  2  0  0  0  0  0  0  0  0  0
    2.7720    2.5324    0.8206 C   0  0  2  0  0  0  0  0  0  0  0  0
    0.9245   -3.6639    0.9035 C   0  0  1  0  0  0  0  0  0  0  0  0
    0.4199   -3.8417   -0.5241 C   0  0  1  0  0  0  0  0  0  0  0  0
    4.0576    1.7374    0.7372 C   0  0  1  0  0  0  0  0  0  0  0  0
    0.9912   -0.2945   -0.6819 C   0  0  0  0  0  0  0  0  0  0  0  0
    4.1686    1.5098   -0.7662 C   0  0  1  0  0  0  0  0  0  0  0  0
    0.7691    2.6832   -0.7333 C   0  0  0  0  0  0  0  0  0  0  0  0
   -0.8113   -4.7270   -0.6112 C   0  0  0  0  0  0  0  0  0  0  0  0
    4.8369    0.1920   -1.1180 C   0  0  0  0  0  0  0  0  0  0  0  0
   -1.8338   -1.0077   -0.0268 C   0  0  0  0  0  0  0  0  0  0  0  0
   -3.0282   -0.6727    0.8459 C   0  0  0  0  0  0  0  0  0  0  0  0
   -4.3507   -0.3900    0.1354 C   0  0  2  0  0  0  0  0  0  0  0  0
   -4.3536    0.8334   -0.7940 C   0  0  1  0  0  0  0  0  0  0  0  0
   -3.6145    2.0739   -0.2585 C   0  0  1  0  0  0  0  0  0  0  0  0
   -3.6882    3.2464   -1.2372 C   0  0  0  0  0  0  0  0  0  0  0  0
    2.4789   -2.2835    0.3588 H   0  0  0  0  0  0  0  0  0  0  0  0
    2.9549    3.5780    0.5412 H   0  0  0  0  0  0  0  0  0  0  0  0
    0.1280   -3.7409    1.6521 H   0  0  0  0  0  0  0  0  0  0  0  0
    1.1992   -4.2440   -1.1833 H   0  0  0  0  0  0  0  0  0  0  0  0
    3.9901    0.8042    1.3077 H   0  0  0  0  0  0  0  0  0  0  0  0
    0.2479    0.1445   -1.3494 H   0  0  0  0  0  0  0  0  0  0  0  0
    1.8390   -0.5838   -1.3146 H   0  0  0  0  0  0  0  0  0  0  0  0
    4.7047    2.3283   -1.2624 H   0  0  0  0  0  0  0  0  0  0  0  0
    0.1656    2.1927   -1.5007 H   0  0  0  0  0  0  0  0  0  0  0  0
    1.1551    3.6065   -1.1804 H   0  0  0  0  0  0  0  0  0  0  0  0
   -1.6465   -4.2981   -0.0482 H   0  0  0  0  0  0  0  0  0  0  0  0
   -0.5995   -5.7318   -0.2329 H   0  0  0  0  0  0  0  0  0  0  0  0
    4.2670   -0.6566   -0.7267 H   0  0  0  0  0  0  0  0  0  0  0  0
    5.8576    0.1527   -0.7253 H   0  0  0  0  0  0  0  0  0  0  0  0
    1.9278   -0.7584    1.9913 H   0  0  0  0  0  0  0  0  0  0  0  0
    2.8673    2.8785    2.7281 H   0  0  0  0  0  0  0  0  0  0  0  0
    2.6363   -4.5434    0.5618 H   0  0  0  0  0  0  0  0  0  0  0  0
   -2.1109   -1.9039   -0.5904 H   0  0  0  0  0  0  0  0  0  0  0  0
   -1.6749   -0.1710   -0.7070 H   0  0  0  0  0  0  0  0  0  0  0  0
    5.2127    3.3140    0.7329 H   0  0  0  0  0  0  0  0  0  0  0  0
   -0.7684    3.6024    0.0134 H   0  0  0  0  0  0  0  0  0  0  0  0
   -1.9979   -5.3928   -1.9958 H   0  0  0  0  0  0  0  0  0  0  0  0
    5.3141   -0.7839   -2.7268 H   0  0  0  0  0  0  0  0  0  0  0  0
   -4.6180   -1.2976   -0.4171 H   0  0  0  0  0  0  0  0  0  0  0  0
   -5.4024    1.1237   -0.9464 H   0  0  0  0  0  0  0  0  0  0  0  0
   -2.5613    1.8504   -0.0647 H   0  0  0  0  0  0  0  0  0  0  0  0
   -5.1493    0.6214    1.6061 H   0  0  0  0  0  0  0  0  0  0  0  0
   -3.2504    2.9912   -2.2066 H   0  0  0  0  0  0  0  0  0  0  0  0
   -4.7236    3.5733   -1.3781 H   0  0  0  0  0  0  0  0  0  0  0  0
   -4.3845   -0.2517   -2.4185 H   0  0  0  0  0  0  0  0  0  0  0  0
   -3.7080    3.2774    1.2773 H   0  0  0  0  0  0  0  0  0  0  0  0
   -3.0240    5.0722   -1.3365 H   0  0  0  0  0  0  0  0  0  0  0  0
  1 17  1  0  0  0  0
  1 22  1  0  0  0  0
  2 18  1  0  0  0  0
  2 24  1  0  0  0  0
  3 18  1  0  0  0  0
  3 25  1  0  0  0  0
  4 17  1  0  0  0  0
  4 29  1  0  0  0  0
  5 19  1  0  0  0  0
  5 49  1  0  0  0  0
  6 20  1  0  0  0  0
  6 50  1  0  0  0  0
  7 21  1  0  0  0  0
  7 51  1  0  0  0  0
  8 23  1  0  0  0  0
  8 54  1  0  0  0  0
  9 26  1  0  0  0  0
  9 55  1  0  0  0  0
 10 27  1  0  0  0  0
 10 56  1  0  0  0  0
 11 28  1  0  0  0  0
 11 57  1  0  0  0  0
 12 30  2  0  0  0  0
 13 31  1  0  0  0  0
 13 61  1  0  0  0  0
 14 32  1  0  0  0  0
 14 64  1  0  0  0  0
 15 33  1  0  0  0  0
 15 65  1  0  0  0  0
 16 34  1  0  0  0  0
 16 66  1  0  0  0  0
 17 19  1  0  0  0  0
 17 24  1  0  0  0  0
 18 20  1  0  0  0  0
 18 26  1  0  0  0  0
 19 21  1  0  0  0  0
 19 35  1  0  0  0  0
 20 23  1  0  0  0  0
 20 36  1  0  0  0  0
 21 22  1  0  0  0  0
 21 37  1  0  0  0  0
 22 27  1  0  0  0  0
 22 38  1  0  0  0  0
 23 25  1  0  0  0  0
 23 39  1  0  0  0  0
 24 40  1  0  0  0  0
 24 41  1  0  0  0  0
 25 28  1  0  0  0  0
 25 42  1  0  0  0  0
 26 43  1  0  0  0  0
 26 44  1  0  0  0  0
 27 45  1  0  0  0  0
 27 46  1  0  0  0  0
 28 47  1  0  0  0  0
 28 48  1  0  0  0  0
 29 30  1  0  0  0  0
 29 52  1  0  0  0  0
 29 53  1  0  0  0  0
 30 31  1  0  0  0  0
 31 32  1  0  0  0  0
 31 58  1  0  0  0  0
 32 33  1  0  0  0  0
 32 59  1  0  0  0  0
 33 34  1  0  0  0  0
 33 60  1  0  0  0  0
 34 62  1  0  0  0  0
 34 63  1  0  0  0  0
M  END
> <PUBCHEM_COMPOUND_CID>
101708615

> <PUBCHEM_CONFORMER_RMSD>
1.2

> <PUBCHEM_CONFORMER_DIVERSEORDER>
1
32
27
26
30
13
24
18
28
9
20
7
15
25
34
36
6
29
22
8
14
12
21
17
5
35
23
10
16
31
33
37
4
11
2
3
19

> <PUBCHEM_MMFF94_PARTIAL_CHARGES>
45
1 -0.56
10 -0.68
11 -0.68
12 -0.57
13 -0.68
14 -0.68
15 -0.68
16 -0.68
17 0.56
18 0.56
19 0.28
2 -0.56
20 0.28
21 0.28
22 0.28
23 0.28
24 0.28
25 0.28
26 0.28
27 0.28
28 0.28
29 0.34
3 -0.56
30 0.45
31 0.34
32 0.28
33 0.28
34 0.28
4 -0.56
49 0.4
5 -0.68
50 0.4
51 0.4
54 0.4
55 0.4
56 0.4
57 0.4
6 -0.68
61 0.4
64 0.4
65 0.4
66 0.4
7 -0.68
8 -0.68
9 -0.68

> <PUBCHEM_EFFECTIVE_ROTOR_COUNT>
15

> <PUBCHEM_PHARMACOPHORE_FEATURES>
29
1 1 acceptor
1 10 acceptor
1 10 donor
1 11 acceptor
1 11 donor
1 12 acceptor
1 13 acceptor
1 13 donor
1 14 acceptor
1 14 donor
1 15 acceptor
1 15 donor
1 16 acceptor
1 16 donor
1 2 acceptor
1 3 acceptor
1 4 acceptor
1 5 acceptor
1 5 donor
1 6 acceptor
1 6 donor
1 7 acceptor
1 7 donor
1 8 acceptor
1 8 donor
1 9 acceptor
1 9 donor
5 1 17 19 21 22 rings
5 3 18 20 23 25 rings

> <PUBCHEM_HEAVY_ATOM_COUNT>
34

> <PUBCHEM_ATOM_DEF_STEREO_COUNT>
11

> <PUBCHEM_ATOM_UDEF_STEREO_COUNT>
0

> <PUBCHEM_BOND_DEF_STEREO_COUNT>
0

> <PUBCHEM_BOND_UDEF_STEREO_COUNT>
0

> <PUBCHEM_ISOTOPIC_ATOM_COUNT>
0

> <PUBCHEM_COMPONENT_COUNT>
1

> <PUBCHEM_CACTVS_TAUTO_COUNT>
1

> <PUBCHEM_CONFORMER_ID>
060FF34700000001

> <PUBCHEM_MMFF94_ENERGY>
99.235

> <PUBCHEM_FEATURE_SELFOVERLAP>
147.372

> <PUBCHEM_SHAPE_FINGERPRINT>
1100329 8 17328582238432150071
11513181 2 18269824337833782463
12160290 23 17692278612298469995
12422481 6 17970885801286876792
12788726 201 17470725980272707710
140371 6 17619063928348239891
14251751 93 18192995039335411355
14251757 5 17975435795071909124
14466204 15 18335412474474390384
14790565 3 18407760322655012596
14866123 147 18265879432501311890
15082195 135 18124859185053023823
15420108 30 18339346531093516963
16728300 4 17823672270599648267
20567600 299 18124582094747239845
20600515 1 16603775905288739030
21033648 29 18270955855473945849
21796203 349 16899092685089142696
21857420 4 17113808597200325182
22393880 68 18342455911438414437
23558518 356 17544756089464841266
23559900 14 17978218362300621003
3298306 158 18409169896012987438
5385378 56 18409175380897078475
59755656 215 18333455344124601717
7164475 11 17549264087080791766
7399639 24 18408613565400968739
79837 15 18263927815882729611
81228 2 17330839530854678139
9981440 41 18335691759164953657

> <PUBCHEM_SHAPE_MULTIPOLES>
605.8
9.41
6.44
1.78
1.19
6.03
-0.08
-8.52
-0.93
0.74
-0.72
-0.58
0.27
0.58

> <PUBCHEM_SHAPE_SELFOVERLAP>
1241.988

> <PUBCHEM_SHAPE_VOLUME>
348.3

> <PUBCHEM_COORDINATE_TYPE>
2
5
10