101745322
  -OEChem-05072106003D

 87 89  0     1  0  0  0  0  0999 V2000
   -1.8842   -0.8297    0.3771 O   0  0  0  0  0  0  0  0  0  0  0  0
   -3.5646   -0.2647   -1.1968 O   0  0  0  0  0  0  0  0  0  0  0  0
   -1.0365    1.8449    0.4357 O   0  0  0  0  0  0  0  0  0  0  0  0
   -0.4507   -3.8820   -1.0842 O   0  0  0  0  0  0  0  0  0  0  0  0
   -0.5637    3.4482   -1.2454 O   0  0  0  0  0  0  0  0  0  0  0  0
   -3.5133    3.2321    0.9988 O   0  0  0  0  0  0  0  0  0  0  0  0
    0.5768   -2.1647    0.1870 O   0  0  0  0  0  0  0  0  0  0  0  0
   -5.7307    1.4247    1.2613 O   0  0  0  0  0  0  0  0  0  0  0  0
   -3.6066   -2.9191    1.3986 O   0  0  0  0  0  0  0  0  0  0  0  0
   -2.1950   -5.3898    1.7921 O   0  0  0  0  0  0  0  0  0  0  0  0
    1.7113    1.5229    0.9049 O   0  0  0  0  0  0  0  0  0  0  0  0
    2.5563    4.2571    1.3357 O   0  0  0  0  0  0  0  0  0  0  0  0
    0.3719    6.1109    1.1260 O   0  0  0  0  0  0  0  0  0  0  0  0
   -5.7245   -1.9215   -1.4025 O   0  0  0  0  0  0  0  0  0  0  0  0
    0.7696   -6.3232   -1.1462 O   0  0  0  0  0  0  0  0  0  0  0  0
   -2.5275    5.2306   -1.8926 O   0  0  0  0  0  0  0  0  0  0  0  0
    3.3204   -2.9053    1.1190 O   0  0  0  0  0  0  0  0  0  0  0  0
    3.7018    0.0866   -0.9758 O   0  0  0  0  0  0  0  0  0  0  0  0
    4.8376    0.2362    1.6621 O   0  0  0  0  0  0  0  0  0  0  0  0
    6.9036    1.0678    0.2574 O   0  0  0  0  0  0  0  0  0  0  0  0
    8.3235   -0.2220   -1.5925 O   0  0  0  0  0  0  0  0  0  0  0  0
   -2.2800    1.5326   -0.1823 C   0  0  1  0  0  0  0  0  0  0  0  0
   -2.2900    0.0756   -0.6477 C   0  0  1  0  0  0  0  0  0  0  0  0
   -3.4175    1.8203    0.7956 C   0  0  2  0  0  0  0  0  0  0  0  0
   -1.8669   -2.1732   -0.0920 C   0  0  2  0  0  0  0  0  0  0  0  0
   -4.7505    1.3253    0.2309 C   0  0  1  0  0  0  0  0  0  0  0  0
   -4.6404   -0.1240   -0.2619 C   0  0  1  0  0  0  0  0  0  0  0  0
   -2.2330   -3.1142    1.0542 C   0  0  2  0  0  0  0  0  0  0  0  0
   -2.0464   -4.5731    0.6330 C   0  0  1  0  0  0  0  0  0  0  0  0
   -0.0847    2.3164   -0.5162 C   0  0  1  0  0  0  0  0  0  0  0  0
   -0.4979   -2.5107   -0.6847 C   0  0  2  0  0  0  0  0  0  0  0  0
   -0.6672   -4.7953   -0.0024 C   0  0  1  0  0  0  0  0  0  0  0  0
    1.2745    2.6230    0.1148 C   0  0  1  0  0  0  0  0  0  0  0  0
    1.2238    3.8799    0.9810 C   0  0  2  0  0  0  0  0  0  0  0  0
    0.5860    5.0383    0.2117 C   0  0  1  0  0  0  0  0  0  0  0  0
   -0.7411    4.6132   -0.4315 C   0  0  1  0  0  0  0  0  0  0  0  0
   -5.9104   -0.5860   -0.9714 C   0  0  0  0  0  0  0  0  0  0  0  0
   -0.5187   -6.2035   -0.5719 C   0  0  0  0  0  0  0  0  0  0  0  0
   -1.3161    5.7028   -1.3325 C   0  0  0  0  0  0  0  0  0  0  0  0
    1.8061   -2.0499   -0.5227 C   0  0  0  0  0  0  0  0  0  0  0  0
    2.9172   -1.7009    0.4680 C   0  0  2  0  0  0  0  0  0  0  0  0
    4.1258   -1.0519   -0.2318 C   0  0  2  0  0  0  0  0  0  0  0  0
    5.3031   -0.6867    0.6852 C   0  0  1  0  0  0  0  0  0  0  0  0
    6.5134   -0.0689   -0.0132 C   0  0  0  0  0  0  0  0  0  0  0  0
    7.2358   -0.9295   -1.0319 C   0  0  0  0  0  0  0  0  0  0  0  0
   -2.4643    2.1678   -1.0589 H   0  0  0  0  0  0  0  0  0  0  0  0
   -1.5688   -0.0138   -1.4670 H   0  0  0  0  0  0  0  0  0  0  0  0
   -3.2106    1.3804    1.7780 H   0  0  0  0  0  0  0  0  0  0  0  0
   -2.6221   -2.3367   -0.8724 H   0  0  0  0  0  0  0  0  0  0  0  0
   -5.0708    1.9809   -0.5881 H   0  0  0  0  0  0  0  0  0  0  0  0
   -4.4696   -0.7917    0.5864 H   0  0  0  0  0  0  0  0  0  0  0  0
   -1.6530   -2.8798    1.9543 H   0  0  0  0  0  0  0  0  0  0  0  0
   -2.8382   -4.8583   -0.0704 H   0  0  0  0  0  0  0  0  0  0  0  0
    0.0759    1.5122   -1.2439 H   0  0  0  0  0  0  0  0  0  0  0  0
   -0.3902   -1.9211   -1.6030 H   0  0  0  0  0  0  0  0  0  0  0  0
    0.1293   -4.6496    0.7395 H   0  0  0  0  0  0  0  0  0  0  0  0
    2.0183    2.7726   -0.6784 H   0  0  0  0  0  0  0  0  0  0  0  0
    0.6971    3.6867    1.9227 H   0  0  0  0  0  0  0  0  0  0  0  0
    1.2817    5.3980   -0.5562 H   0  0  0  0  0  0  0  0  0  0  0  0
   -1.4782    4.3995    0.3469 H   0  0  0  0  0  0  0  0  0  0  0  0
   -6.1062    0.0268   -1.8576 H   0  0  0  0  0  0  0  0  0  0  0  0
   -6.7774   -0.5459   -0.3051 H   0  0  0  0  0  0  0  0  0  0  0  0
   -0.6314   -6.9634    0.2072 H   0  0  0  0  0  0  0  0  0  0  0  0
   -1.2548   -6.3835   -1.3626 H   0  0  0  0  0  0  0  0  0  0  0  0
   -3.7248    3.6476    0.1454 H   0  0  0  0  0  0  0  0  0  0  0  0
   -5.4740    0.8211    1.9793 H   0  0  0  0  0  0  0  0  0  0  0  0
   -0.6319    5.9271   -2.1576 H   0  0  0  0  0  0  0  0  0  0  0  0
   -1.5188    6.6198   -0.7711 H   0  0  0  0  0  0  0  0  0  0  0  0
   -4.1487   -3.1474    0.6242 H   0  0  0  0  0  0  0  0  0  0  0  0
   -1.4751   -5.1704    2.4080 H   0  0  0  0  0  0  0  0  0  0  0  0
    1.6889   -1.2600   -1.2719 H   0  0  0  0  0  0  0  0  0  0  0  0
    2.0286   -2.9964   -1.0293 H   0  0  0  0  0  0  0  0  0  0  0  0
    1.6826    0.7382    0.3331 H   0  0  0  0  0  0  0  0  0  0  0  0
    3.0532    4.4217    0.5162 H   0  0  0  0  0  0  0  0  0  0  0  0
   -0.2703    5.8135    1.7929 H   0  0  0  0  0  0  0  0  0  0  0  0
    2.5274   -1.0329    1.2428 H   0  0  0  0  0  0  0  0  0  0  0  0
   -6.5421   -2.1944   -1.8526 H   0  0  0  0  0  0  0  0  0  0  0  0
    4.4962   -1.7792   -0.9657 H   0  0  0  0  0  0  0  0  0  0  0  0
    0.8416   -7.2242   -1.5046 H   0  0  0  0  0  0  0  0  0  0  0  0
   -2.8747    5.9372   -2.4633 H   0  0  0  0  0  0  0  0  0  0  0  0
    5.6586   -1.5713    1.2242 H   0  0  0  0  0  0  0  0  0  0  0  0
    2.5317   -3.2864    1.5419 H   0  0  0  0  0  0  0  0  0  0  0  0
    4.4509    0.3885   -1.5164 H   0  0  0  0  0  0  0  0  0  0  0  0
    4.4533    0.9967    1.1928 H   0  0  0  0  0  0  0  0  0  0  0  0
    7.6123   -1.8279   -0.5354 H   0  0  0  0  0  0  0  0  0  0  0  0
    6.5490   -1.1978   -1.8378 H   0  0  0  0  0  0  0  0  0  0  0  0
    8.7617   -0.8202   -2.2215 H   0  0  0  0  0  0  0  0  0  0  0  0
  1 23  1  0  0  0  0
  1 25  1  0  0  0  0
  2 23  1  0  0  0  0
  2 27  1  0  0  0  0
  3 22  1  0  0  0  0
  3 30  1  0  0  0  0
  4 31  1  0  0  0  0
  4 32  1  0  0  0  0
  5 30  1  0  0  0  0
  5 36  1  0  0  0  0
  6 24  1  0  0  0  0
  6 65  1  0  0  0  0
  7 31  1  0  0  0  0
  7 40  1  0  0  0  0
  8 26  1  0  0  0  0
  8 66  1  0  0  0  0
  9 28  1  0  0  0  0
  9 69  1  0  0  0  0
 10 29  1  0  0  0  0
 10 70  1  0  0  0  0
 11 33  1  0  0  0  0
 11 73  1  0  0  0  0
 12 34  1  0  0  0  0
 12 74  1  0  0  0  0
 13 35  1  0  0  0  0
 13 75  1  0  0  0  0
 14 37  1  0  0  0  0
 14 77  1  0  0  0  0
 15 38  1  0  0  0  0
 15 79  1  0  0  0  0
 16 39  1  0  0  0  0
 16 80  1  0  0  0  0
 17 41  1  0  0  0  0
 17 82  1  0  0  0  0
 18 42  1  0  0  0  0
 18 83  1  0  0  0  0
 19 43  1  0  0  0  0
 19 84  1  0  0  0  0
 20 44  2  0  0  0  0
 21 45  1  0  0  0  0
 21 87  1  0  0  0  0
 22 23  1  0  0  0  0
 22 24  1  0  0  0  0
 22 46  1  0  0  0  0
 23 47  1  0  0  0  0
 24 26  1  0  0  0  0
 24 48  1  0  0  0  0
 25 28  1  0  0  0  0
 25 31  1  0  0  0  0
 25 49  1  0  0  0  0
 26 27  1  0  0  0  0
 26 50  1  0  0  0  0
 27 37  1  0  0  0  0
 27 51  1  0  0  0  0
 28 29  1  0  0  0  0
 28 52  1  0  0  0  0
 29 32  1  0  0  0  0
 29 53  1  0  0  0  0
 30 33  1  0  0  0  0
 30 54  1  0  0  0  0
 31 55  1  0  0  0  0
 32 38  1  0  0  0  0
 32 56  1  0  0  0  0
 33 34  1  0  0  0  0
 33 57  1  0  0  0  0
 34 35  1  0  0  0  0
 34 58  1  0  0  0  0
 35 36  1  0  0  0  0
 35 59  1  0  0  0  0
 36 39  1  0  0  0  0
 36 60  1  0  0  0  0
 37 61  1  0  0  0  0
 37 62  1  0  0  0  0
 38 63  1  0  0  0  0
 38 64  1  0  0  0  0
 39 67  1  0  0  0  0
 39 68  1  0  0  0  0
 40 41  1  0  0  0  0
 40 71  1  0  0  0  0
 40 72  1  0  0  0  0
 41 42  1  0  0  0  0
 41 76  1  0  0  0  0
 42 43  1  0  0  0  0
 42 78  1  0  0  0  0
 43 44  1  0  0  0  0
 43 81  1  0  0  0  0
 44 45  1  0  0  0  0
 45 85  1  0  0  0  0
 45 86  1  0  0  0  0
M  END
> <PUBCHEM_COMPOUND_CID>
101745322

> <PUBCHEM_CONFORMER_RMSD>
1.4

> <PUBCHEM_CONFORMER_DIVERSEORDER>
1
9
11
16
13
4
8
14
19
15
12
10
7
6
2
18
3
5
17
20

> <PUBCHEM_MMFF94_PARTIAL_CHARGES>
59
1 -0.56
10 -0.68
11 -0.68
12 -0.68
13 -0.68
14 -0.68
15 -0.68
16 -0.68
17 -0.68
18 -0.68
19 -0.68
2 -0.56
20 -0.57
21 -0.68
22 0.28
23 0.56
24 0.28
25 0.28
26 0.28
27 0.28
28 0.28
29 0.28
3 -0.56
30 0.56
31 0.56
32 0.28
33 0.28
34 0.28
35 0.28
36 0.28
37 0.28
38 0.28
39 0.28
4 -0.56
40 0.28
41 0.28
42 0.28
43 0.34
44 0.45
45 0.34
5 -0.56
6 -0.68
65 0.4
66 0.4
69 0.4
7 -0.56
70 0.4
73 0.4
74 0.4
75 0.4
77 0.4
79 0.4
8 -0.68
80 0.4
82 0.4
83 0.4
84 0.4
87 0.4
9 -0.68

> <PUBCHEM_EFFECTIVE_ROTOR_COUNT>
17.6

> <PUBCHEM_PHARMACOPHORE_FEATURES>
38
1 1 acceptor
1 10 acceptor
1 10 donor
1 11 acceptor
1 11 donor
1 12 acceptor
1 12 donor
1 13 acceptor
1 13 donor
1 14 acceptor
1 14 donor
1 15 acceptor
1 15 donor
1 16 acceptor
1 16 donor
1 17 acceptor
1 17 donor
1 18 acceptor
1 18 donor
1 19 acceptor
1 19 donor
1 2 acceptor
1 20 acceptor
1 21 acceptor
1 21 donor
1 3 acceptor
1 4 acceptor
1 5 acceptor
1 6 acceptor
1 6 donor
1 7 acceptor
1 8 acceptor
1 8 donor
1 9 acceptor
1 9 donor
6 2 22 23 24 26 27 rings
6 4 25 28 29 31 32 rings
6 5 30 33 34 35 36 rings

> <PUBCHEM_HEAVY_ATOM_COUNT>
45

> <PUBCHEM_ATOM_DEF_STEREO_COUNT>
18

> <PUBCHEM_ATOM_UDEF_STEREO_COUNT>
0

> <PUBCHEM_BOND_DEF_STEREO_COUNT>
0

> <PUBCHEM_BOND_UDEF_STEREO_COUNT>
0

> <PUBCHEM_ISOTOPIC_ATOM_COUNT>
0

> <PUBCHEM_COMPONENT_COUNT>
1

> <PUBCHEM_CACTVS_TAUTO_COUNT>
1

> <PUBCHEM_CONFORMER_ID>
061082AA00000001

> <PUBCHEM_MMFF94_ENERGY>
123.6561

> <PUBCHEM_FEATURE_SELFOVERLAP>
193.141

> <PUBCHEM_SHAPE_FINGERPRINT>
10290309 65 18050286973066644204
12788726 201 18265045847841605984
13911987 19 18262222327630170335
14040221 97 17827652356595802693
14394314 77 18339647741535234105
15001296 14 18262518212850301904
15297060 5 18272378529331304474
15320467 1 18411134745104159234
15538507 32 18411423947281612092
19319366 153 17676759890805077186
19611394 137 18189066437266689939
21133410 127 17755309968283107412
23559900 14 18195520630840914353
3383291 50 18340764948475703411
463206 1 18337673113504629432
5265222 85 18337676296086250748
9961470 85 18053650654040759513

> <PUBCHEM_SHAPE_MULTIPOLES>
802.82
12.96
10.5
1.38
21.69
0.11
0.01
1.03
2.17
-5.31
0.29
-0.13
-0.19
1.34

> <PUBCHEM_SHAPE_SELFOVERLAP>
1644.292

> <PUBCHEM_SHAPE_VOLUME>
454.6

> <PUBCHEM_COORDINATE_TYPE>
2
5
10