101947980
  -OEChem-05072106003D

 44 44  0     1  0  0  0  0  0999 V2000
    0.1426   -2.5135   -1.6510 S   0  0  0  0  0  0  0  0  0  0  0  0
    2.5388   -0.7996    0.1779 O   0  0  0  0  0  0  0  0  0  0  0  0
    3.0179    3.2434    0.7170 O   0  0  0  0  0  0  0  0  0  0  0  0
    5.2090    1.6598   -0.3059 O   0  0  0  0  0  0  0  0  0  0  0  0
    0.2151   -0.6118    0.2759 O   0  0  0  0  0  0  0  0  0  0  0  0
    0.4407    2.1653   -0.2190 O   0  0  0  0  0  0  0  0  0  0  0  0
    4.5770   -2.5205   -0.4852 O   0  0  0  0  0  0  0  0  0  0  0  0
   -2.6903    0.3932    1.5355 O   0  0  0  0  0  0  0  0  0  0  0  0
   -3.9370   -2.0872    0.7161 O   0  0  0  0  0  0  0  0  0  0  0  0
   -4.5417    0.4729   -1.6347 O   0  0  0  0  0  0  0  0  0  0  0  0
   -1.4613   -2.9232    1.2840 O   0  0  0  0  0  0  0  0  0  0  0  0
   -5.5669    2.7270   -0.4413 O   0  0  0  0  0  0  0  0  0  0  0  0
    2.8447    2.0475   -0.0446 C   0  0  1  0  0  0  0  0  0  0  0  0
    4.0191    1.1179    0.2611 C   0  0  1  0  0  0  0  0  0  0  0  0
    1.5123    1.3962    0.3266 C   0  0  2  0  0  0  0  0  0  0  0  0
    3.7726   -0.2773   -0.3179 C   0  0  1  0  0  0  0  0  0  0  0  0
    1.4137   -0.0244   -0.2294 C   0  0  1  0  0  0  0  0  0  0  0  0
    4.8763   -1.2545    0.0741 C   0  0  0  0  0  0  0  0  0  0  0  0
   -2.9410    0.0737    0.1658 C   0  0  1  0  0  0  0  0  0  0  0  0
   -2.9047   -1.4510   -0.0240 C   0  0  1  0  0  0  0  0  0  0  0  0
   -0.3536   -1.6694   -0.3248 C   0  0  0  0  0  0  0  0  0  0  0  0
   -4.2825    0.7057   -0.2502 C   0  0  1  0  0  0  0  0  0  0  0  0
   -1.5897   -2.0847    0.4018 C   0  0  0  0  0  0  0  0  0  0  0  0
   -4.3110    2.2144   -0.0077 C   0  0  0  0  0  0  0  0  0  0  0  0
    2.8516    2.3527   -1.0976 H   0  0  0  0  0  0  0  0  0  0  0  0
    4.1707    1.0602    1.3459 H   0  0  0  0  0  0  0  0  0  0  0  0
    1.3762    1.3922    1.4146 H   0  0  0  0  0  0  0  0  0  0  0  0
    3.7220   -0.2458   -1.4149 H   0  0  0  0  0  0  0  0  0  0  0  0
    1.3663    0.0259   -1.3252 H   0  0  0  0  0  0  0  0  0  0  0  0
    4.9238   -1.3735    1.1617 H   0  0  0  0  0  0  0  0  0  0  0  0
    5.8524   -0.9282   -0.2973 H   0  0  0  0  0  0  0  0  0  0  0  0
    2.9983    3.0070    1.6601 H   0  0  0  0  0  0  0  0  0  0  0  0
    5.0900    1.7023   -1.2702 H   0  0  0  0  0  0  0  0  0  0  0  0
    0.5416    2.1807   -1.1860 H   0  0  0  0  0  0  0  0  0  0  0  0
   -2.1432    0.5295   -0.4330 H   0  0  0  0  0  0  0  0  0  0  0  0
   -3.0685   -1.6972   -1.0793 H   0  0  0  0  0  0  0  0  0  0  0  0
   -5.1058    0.2507    0.3138 H   0  0  0  0  0  0  0  0  0  0  0  0
    5.2892   -3.1271   -0.2201 H   0  0  0  0  0  0  0  0  0  0  0  0
   -3.5313    2.7154   -0.5910 H   0  0  0  0  0  0  0  0  0  0  0  0
   -4.1846    2.4568    1.0515 H   0  0  0  0  0  0  0  0  0  0  0  0
   -1.7793    0.1239    1.7414 H   0  0  0  0  0  0  0  0  0  0  0  0
   -3.9591   -3.0217    0.4474 H   0  0  0  0  0  0  0  0  0  0  0  0
   -5.3948    0.8891   -1.8465 H   0  0  0  0  0  0  0  0  0  0  0  0
   -5.5534    3.6860   -0.2814 H   0  0  0  0  0  0  0  0  0  0  0  0
  1 21  2  0  0  0  0
  2 16  1  0  0  0  0
  2 17  1  0  0  0  0
  3 13  1  0  0  0  0
  3 32  1  0  0  0  0
  4 14  1  0  0  0  0
  4 33  1  0  0  0  0
  5 17  1  0  0  0  0
  5 21  1  0  0  0  0
  6 15  1  0  0  0  0
  6 34  1  0  0  0  0
  7 18  1  0  0  0  0
  7 38  1  0  0  0  0
  8 19  1  0  0  0  0
  8 41  1  0  0  0  0
  9 20  1  0  0  0  0
  9 42  1  0  0  0  0
 10 22  1  0  0  0  0
 10 43  1  0  0  0  0
 11 23  2  0  0  0  0
 12 24  1  0  0  0  0
 12 44  1  0  0  0  0
 13 14  1  0  0  0  0
 13 15  1  0  0  0  0
 13 25  1  0  0  0  0
 14 16  1  0  0  0  0
 14 26  1  0  0  0  0
 15 17  1  0  0  0  0
 15 27  1  0  0  0  0
 16 18  1  0  0  0  0
 16 28  1  0  0  0  0
 17 29  1  0  0  0  0
 18 30  1  0  0  0  0
 18 31  1  0  0  0  0
 19 20  1  0  0  0  0
 19 22  1  0  0  0  0
 19 35  1  0  0  0  0
 20 23  1  0  0  0  0
 20 36  1  0  0  0  0
 21 23  1  0  0  0  0
 22 24  1  0  0  0  0
 22 37  1  0  0  0  0
 24 39  1  0  0  0  0
 24 40  1  0  0  0  0
M  END
> <PUBCHEM_COMPOUND_CID>
101947980

> <PUBCHEM_CONFORMER_RMSD>
1

> <PUBCHEM_CONFORMER_DIVERSEORDER>
1
64
70
13
18
63
35
40
77
12
23
95
56
49
103
76
22
39
104
43
83
59
80
91
88
25
79
44
24
90
73
14
10
7
100
27
30
9
37
102
60
78
65
96
53
8
92
29
52
33
31
68
16
54
58
86
50
48
45
101
4
20
99
81
57
28
105
94
87
82
55
5
72
42
89
66
32
41
97
26
11
17
84
61
67
6
34
47
46
36
19
71
106
93
74
15
2
75
38
98
3
69
85
21
62
51

> <PUBCHEM_MMFF94_PARTIAL_CHARGES>
32
1 -0.38
10 -0.68
11 -0.57
12 -0.68
13 0.28
14 0.28
15 0.28
16 0.28
17 0.56
18 0.28
19 0.28
2 -0.56
20 0.34
21 0.53
22 0.28
23 0.51
24 0.28
3 -0.68
32 0.4
33 0.4
34 0.4
38 0.4
4 -0.68
41 0.4
42 0.4
43 0.4
44 0.4
5 -0.43
6 -0.68
7 -0.68
8 -0.68
9 -0.68

> <PUBCHEM_EFFECTIVE_ROTOR_COUNT>
9.2

> <PUBCHEM_PHARMACOPHORE_FEATURES>
20
1 1 acceptor
1 10 acceptor
1 10 donor
1 11 acceptor
1 12 acceptor
1 12 donor
1 2 acceptor
1 3 acceptor
1 3 donor
1 4 acceptor
1 4 donor
1 6 acceptor
1 6 donor
1 7 acceptor
1 7 donor
1 8 acceptor
1 8 donor
1 9 acceptor
1 9 donor
6 2 13 14 15 16 17 rings

> <PUBCHEM_HEAVY_ATOM_COUNT>
24

> <PUBCHEM_ATOM_DEF_STEREO_COUNT>
8

> <PUBCHEM_ATOM_UDEF_STEREO_COUNT>
0

> <PUBCHEM_BOND_DEF_STEREO_COUNT>
0

> <PUBCHEM_BOND_UDEF_STEREO_COUNT>
0

> <PUBCHEM_ISOTOPIC_ATOM_COUNT>
0

> <PUBCHEM_COMPONENT_COUNT>
1

> <PUBCHEM_CACTVS_TAUTO_COUNT>
1

> <PUBCHEM_CONFORMER_ID>
06139A4C00000001

> <PUBCHEM_MMFF94_ENERGY>
61.9276

> <PUBCHEM_FEATURE_SELFOVERLAP>
101.555

> <PUBCHEM_SHAPE_FINGERPRINT>
1100329 8 16896237210531681802
12107183 9 18189324672317228034
12507560 40 18336267945754081946
12633257 1 18189044318121005923
12769317 202 18194106422928091693
13402501 40 18263925449698595277
13464514 151 18267022761190262495
13583140 156 18266466592779348026
14178342 30 17695047187684385170
14251764 38 18410854408299433853
15196674 1 18410293622576551400
15256400 18 18409449206268281900
15442244 35 18413112775175792442
17349148 13 16415209991769350662
17834072 32 18410012113699272225
192875 21 17988641865591527825
20645477 70 18059587918431565686
20832881 197 18115870698913262778
21065198 57 18337111275604599610
21065199 12 18192153908871886538
21279426 13 18338518530186624038
21421861 104 17749936775321926640
23559900 14 18413388735651910890
2838139 119 18338228251075803709
335352 9 18338234852155532094
34934 24 18410289246769709434
350125 39 18338805619160513027
4017518 198 17060055896951331134
474 4 18270118998887339011
5104073 3 18335701671616955938
56616090 46 18262243205313409567
59124914 9 18191866726142011297
6328613 192 18334584538308446484
633830 44 18334849511356258390
9709674 26 18337957920895862010

> <PUBCHEM_SHAPE_MULTIPOLES>
433.2
11.19
3.62
1.04
0.85
0.34
0.13
4.94
0.99
0.18
0
0.76
-0.46
1.17

> <PUBCHEM_SHAPE_SELFOVERLAP>
861.587

> <PUBCHEM_SHAPE_VOLUME>
256.8

> <PUBCHEM_COORDINATE_TYPE>
2
5
10