101992607
  -OEChem-05072106003D

 66 67  0     1  0  0  0  0  0999 V2000
   -2.5573    0.9795    1.5684 S   0  0  0  0  0  0  0  0  0  0  0  0
    3.1028    0.7563   -1.5639 S   0  0  0  0  0  0  0  0  0  0  0  0
   -1.5049    0.6171    0.3804 O   0  0  0  0  0  0  0  0  0  0  0  0
    2.0272    1.1105   -0.3938 O   0  0  0  0  0  0  0  0  0  0  0  0
    1.6780   -0.4654    1.8478 O   0  0  0  0  0  0  0  0  0  0  0  0
    0.2953    3.3407   -0.7408 O   0  0  0  0  0  0  0  0  0  0  0  0
    1.0972   -2.2183   -0.1744 O   0  0  0  0  0  0  0  0  0  0  0  0
   -2.1215    2.2137    2.1939 O   0  0  0  0  0  0  0  0  0  0  0  0
   -2.8238   -0.2123    2.3502 O   0  0  0  0  0  0  0  0  0  0  0  0
    2.7804   -0.5380   -2.1327 O   0  0  0  0  0  0  0  0  0  0  0  0
    3.2618    1.9320   -2.3989 O   0  0  0  0  0  0  0  0  0  0  0  0
   -1.1025   -3.7453   -0.1921 N   0  0  0  0  0  0  0  0  0  0  0  0
   -0.1017    0.6963    0.6641 C   0  0  2  0  0  0  0  0  0  0  0  0
    0.6332    0.9282   -0.6699 C   0  0  1  0  0  0  0  0  0  0  0  0
    0.3313   -0.5727    1.4112 C   0  0  1  0  0  0  0  0  0  0  0  0
    0.1454    2.1319   -1.4752 C   0  0  0  0  0  0  0  0  0  0  0  0
    0.1857   -1.8348    0.5600 C   0  0  0  0  0  0  0  0  0  0  0  0
   -1.1338   -2.5764    0.6754 C   0  0  0  0  0  0  0  0  0  0  0  0
   -4.0545    1.3388    0.7053 C   0  0  0  0  0  0  0  0  0  0  0  0
    4.6190    0.5370   -0.6871 C   0  0  0  0  0  0  0  0  0  0  0  0
   -2.3495   -4.4934   -0.1041 C   0  0  0  0  0  0  0  0  0  0  0  0
   -2.3139   -5.6951   -1.0449 C   0  0  0  0  0  0  0  0  0  0  0  0
   -4.3252    2.6429    0.2906 C   0  0  0  0  0  0  0  0  0  0  0  0
   -4.9660    0.3178    0.4358 C   0  0  0  0  0  0  0  0  0  0  0  0
    5.4624    1.6264   -0.4684 C   0  0  0  0  0  0  0  0  0  0  0  0
    4.9724   -0.7255   -0.2105 C   0  0  0  0  0  0  0  0  0  0  0  0
   -5.5070    2.9258   -0.3938 C   0  0  0  0  0  0  0  0  0  0  0  0
   -6.1478    0.6009   -0.2485 C   0  0  0  0  0  0  0  0  0  0  0  0
   -6.4186    1.9050   -0.6633 C   0  0  0  0  0  0  0  0  0  0  0  0
    6.6590    1.4532    0.2270 C   0  0  0  0  0  0  0  0  0  0  0  0
    6.1690   -0.8985    0.4848 C   0  0  0  0  0  0  0  0  0  0  0  0
    7.0125    0.1908    0.7035 C   0  0  0  0  0  0  0  0  0  0  0  0
   -3.6142   -6.4819   -0.9879 C   0  0  0  0  0  0  0  0  0  0  0  0
   -7.6824    2.2075   -1.3951 C   0  0  0  0  0  0  0  0  0  0  0  0
    8.2921    0.0056    1.4470 C   0  0  0  0  0  0  0  0  0  0  0  0
    0.1121    1.5587    1.3086 H   0  0  0  0  0  0  0  0  0  0  0  0
    0.4839    0.0498   -1.3081 H   0  0  0  0  0  0  0  0  0  0  0  0
   -0.2662   -0.7163    2.3158 H   0  0  0  0  0  0  0  0  0  0  0  0
    0.7032    2.2399   -2.4092 H   0  0  0  0  0  0  0  0  0  0  0  0
   -0.9133    2.0194   -1.7314 H   0  0  0  0  0  0  0  0  0  0  0  0
   -1.9424   -1.9075    0.3715 H   0  0  0  0  0  0  0  0  0  0  0  0
   -1.2647   -2.8735    1.7211 H   0  0  0  0  0  0  0  0  0  0  0  0
    2.2408   -0.3425    1.0657 H   0  0  0  0  0  0  0  0  0  0  0  0
   -0.9515   -3.4501   -1.1568 H   0  0  0  0  0  0  0  0  0  0  0  0
   -2.5043   -4.8439    0.9235 H   0  0  0  0  0  0  0  0  0  0  0  0
   -3.1972   -3.8500   -0.3707 H   0  0  0  0  0  0  0  0  0  0  0  0
   -0.0415    4.0596   -1.3022 H   0  0  0  0  0  0  0  0  0  0  0  0
   -2.1453   -5.3626   -2.0765 H   0  0  0  0  0  0  0  0  0  0  0  0
   -1.4815   -6.3575   -0.7780 H   0  0  0  0  0  0  0  0  0  0  0  0
   -3.6258    3.4516    0.4828 H   0  0  0  0  0  0  0  0  0  0  0  0
   -4.7722   -0.7066    0.7410 H   0  0  0  0  0  0  0  0  0  0  0  0
    5.2036    2.6196   -0.8241 H   0  0  0  0  0  0  0  0  0  0  0  0
    4.3269   -1.5862   -0.3608 H   0  0  0  0  0  0  0  0  0  0  0  0
   -5.7066    3.9456   -0.7120 H   0  0  0  0  0  0  0  0  0  0  0  0
   -6.8500   -0.2030   -0.4531 H   0  0  0  0  0  0  0  0  0  0  0  0
    7.3078    2.3095    0.3911 H   0  0  0  0  0  0  0  0  0  0  0  0
    6.4332   -1.8868    0.8517 H   0  0  0  0  0  0  0  0  0  0  0  0
   -4.4638   -5.8583   -1.2841 H   0  0  0  0  0  0  0  0  0  0  0  0
   -3.5687   -7.3387   -1.6675 H   0  0  0  0  0  0  0  0  0  0  0  0
   -3.8004   -6.8595    0.0226 H   0  0  0  0  0  0  0  0  0  0  0  0
   -8.4738    2.4690   -0.6856 H   0  0  0  0  0  0  0  0  0  0  0  0
   -7.5457    3.0416   -2.0917 H   0  0  0  0  0  0  0  0  0  0  0  0
   -8.0119    1.3469   -1.9871 H   0  0  0  0  0  0  0  0  0  0  0  0
    9.0993   -0.2401    0.7499 H   0  0  0  0  0  0  0  0  0  0  0  0
    8.5657    0.9137    1.9950 H   0  0  0  0  0  0  0  0  0  0  0  0
    8.2076   -0.7999    2.1844 H   0  0  0  0  0  0  0  0  0  0  0  0
  1  3  1  0  0  0  0
  1  8  2  0  0  0  0
  1  9  2  0  0  0  0
  1 19  1  0  0  0  0
  2  4  1  0  0  0  0
  2 10  2  0  0  0  0
  2 11  2  0  0  0  0
  2 20  1  0  0  0  0
  3 13  1  0  0  0  0
  4 14  1  0  0  0  0
  5 15  1  0  0  0  0
  5 43  1  0  0  0  0
  6 16  1  0  0  0  0
  6 47  1  0  0  0  0
  7 17  2  0  0  0  0
 12 18  1  0  0  0  0
 12 21  1  0  0  0  0
 12 44  1  0  0  0  0
 13 14  1  0  0  0  0
 13 15  1  0  0  0  0
 13 36  1  0  0  0  0
 14 16  1  0  0  0  0
 14 37  1  0  0  0  0
 15 17  1  0  0  0  0
 15 38  1  0  0  0  0
 16 39  1  0  0  0  0
 16 40  1  0  0  0  0
 17 18  1  0  0  0  0
 18 41  1  0  0  0  0
 18 42  1  0  0  0  0
 19 23  2  0  0  0  0
 19 24  1  0  0  0  0
 20 25  2  0  0  0  0
 20 26  1  0  0  0  0
 21 22  1  0  0  0  0
 21 45  1  0  0  0  0
 21 46  1  0  0  0  0
 22 33  1  0  0  0  0
 22 48  1  0  0  0  0
 22 49  1  0  0  0  0
 23 27  1  0  0  0  0
 23 50  1  0  0  0  0
 24 28  2  0  0  0  0
 24 51  1  0  0  0  0
 25 30  1  0  0  0  0
 25 52  1  0  0  0  0
 26 31  2  0  0  0  0
 26 53  1  0  0  0  0
 27 29  2  0  0  0  0
 27 54  1  0  0  0  0
 28 29  1  0  0  0  0
 28 55  1  0  0  0  0
 29 34  1  0  0  0  0
 30 32  2  0  0  0  0
 30 56  1  0  0  0  0
 31 32  1  0  0  0  0
 31 57  1  0  0  0  0
 32 35  1  0  0  0  0
 33 58  1  0  0  0  0
 33 59  1  0  0  0  0
 33 60  1  0  0  0  0
 34 61  1  0  0  0  0
 34 62  1  0  0  0  0
 34 63  1  0  0  0  0
 35 64  1  0  0  0  0
 35 65  1  0  0  0  0
 35 66  1  0  0  0  0
M  END
> <PUBCHEM_COMPOUND_CID>
101992607

> <PUBCHEM_CONFORMER_RMSD>
1.2

> <PUBCHEM_CONFORMER_DIVERSEORDER>
1
37
11
24
22
51
38
35
18
41
19
33
15
28
54
27
20
13
29
48
34
12
31
52
43
5
30
10
40
16
8
21
50
32
45
53
2
26
36
42
17
14
25
9
47
46
44
39
7
49
23
3
6
4

> <PUBCHEM_MMFF94_PARTIAL_CHARGES>
44
1 1.49
10 -0.65
11 -0.65
12 -0.9
13 0.28
14 0.28
15 0.34
16 0.28
17 0.45
18 0.33
19 -0.01
2 1.49
20 -0.01
21 0.27
23 -0.15
24 -0.15
25 -0.15
26 -0.15
27 -0.15
28 -0.15
29 -0.14
3 -0.46
30 -0.15
31 -0.15
32 -0.14
34 0.14
35 0.14
4 -0.46
43 0.4
44 0.36
47 0.4
5 -0.68
50 0.15
51 0.15
52 0.15
53 0.15
54 0.15
55 0.15
56 0.15
57 0.15
6 -0.68
7 -0.57
8 -0.65
9 -0.65

> <PUBCHEM_EFFECTIVE_ROTOR_COUNT>
14

> <PUBCHEM_PHARMACOPHORE_FEATURES>
14
1 10 acceptor
1 11 acceptor
1 12 cation
1 12 donor
1 33 hydrophobe
1 5 acceptor
1 5 donor
1 6 acceptor
1 6 donor
1 7 acceptor
1 8 acceptor
1 9 acceptor
6 19 23 24 27 28 29 rings
6 20 25 26 30 31 32 rings

> <PUBCHEM_HEAVY_ATOM_COUNT>
35

> <PUBCHEM_ATOM_DEF_STEREO_COUNT>
3

> <PUBCHEM_ATOM_UDEF_STEREO_COUNT>
0

> <PUBCHEM_BOND_DEF_STEREO_COUNT>
0

> <PUBCHEM_BOND_UDEF_STEREO_COUNT>
0

> <PUBCHEM_ISOTOPIC_ATOM_COUNT>
0

> <PUBCHEM_COMPONENT_COUNT>
1

> <PUBCHEM_CACTVS_TAUTO_COUNT>
4

> <PUBCHEM_CONFORMER_ID>
0614489F00000001

> <PUBCHEM_MMFF94_ENERGY>
47.374

> <PUBCHEM_FEATURE_SELFOVERLAP>
71.089

> <PUBCHEM_SHAPE_FINGERPRINT>
10930396 42 18338776976351385424
10985338 8 17754995538016942153
11135926 11 18337111147510156097
11297750 10 17698156593234512963
11991303 11 18410571799414641375
12422481 6 17749681709693066252
12977781 61 17771048686633053905
13150687 139 18338241461667478687
15131766 46 14781555675818896054
15183329 4 16878234073326665020
15264996 74 18341886441772435282
15815584 197 17460623345366786027
15849732 13 18187083940586706608
18365409 1 18412258476448579039
18681886 176 18335414682272041177
19304144 158 18042403539969748261
20642791 105 18268151027139054898
20775438 99 18059298651862344223
21403212 168 17894908491192722432
21583282 1 17968660415501280442
21703447 108 17550393272848735696
2838139 119 17385446514461972493
3103668 31 18195521713790150343
38695281 34 18336268942550264199
4017518 198 18341057315959092558
4066623 53 17837767099668016943
4366758 6 18341326713096733086
437795 51 11887370505319783958
5028188 123 18338245981597633244
5085150 59 18408325467114799209
6004065 56 18413389851726943805
6691757 9 18272661133989584306
9961470 85 18270686368273398990

> <PUBCHEM_SHAPE_MULTIPOLES>
670.18
18.4
5.98
1.78
14.01
15.14
-0.09
-11.67
0.2
-11.87
2.7
0.3
-0.53
-1.2

> <PUBCHEM_SHAPE_SELFOVERLAP>
1355.579

> <PUBCHEM_SHAPE_VOLUME>
390.6

> <PUBCHEM_COORDINATE_TYPE>
2
5
10