102115076
  -OEChem-05072106003D

 33 32  0     1  0  0  0  0  0999 V2000
    2.1675    0.1427    1.6668 O   0  0  0  0  0  0  0  0  0  0  0  0
    3.8751   -0.6339   -1.4900 O   0  0  0  0  0  0  0  0  0  0  0  0
    2.2481    2.2570   -0.2811 O   0  0  0  0  0  0  0  0  0  0  0  0
    5.7620   -1.5602    0.3344 O   0  0  0  0  0  0  0  0  0  0  0  0
   -2.1645    0.4035   -0.0655 O   0  0  0  0  0  0  0  0  0  0  0  0
   -0.3223    2.2962    0.2888 O   0  0  0  0  0  0  0  0  0  0  0  0
   -2.9192   -1.6768   -0.7306 O   0  0  0  0  0  0  0  0  0  0  0  0
    2.2873   -0.0783    0.2646 C   0  0  2  0  0  0  0  0  0  0  0  0
    3.7655   -0.2991   -0.1071 C   0  0  1  0  0  0  0  0  0  0  0  0
    1.5675    1.0308   -0.5179 C   0  0  1  0  0  0  0  0  0  0  0  0
    4.3925   -1.4338    0.7037 C   0  0  0  0  0  0  0  0  0  0  0  0
    0.0936    1.2307   -0.1691 C   0  0  0  0  0  0  0  0  0  0  0  0
   -0.8439    0.0703   -0.4431 C   0  0  0  0  0  0  0  0  0  0  0  0
   -3.1104   -0.5651   -0.2635 C   0  0  0  0  0  0  0  0  0  0  0  0
   -4.4165   -0.0375    0.1864 C   0  0  0  0  0  0  0  0  0  0  0  0
   -5.5133   -0.8010    0.0962 C   0  0  0  0  0  0  0  0  0  0  0  0
   -6.8690   -0.3455    0.5271 C   0  0  0  0  0  0  0  0  0  0  0  0
    1.7626   -1.0191    0.0547 H   0  0  0  0  0  0  0  0  0  0  0  0
    4.3420    0.6186    0.0588 H   0  0  0  0  0  0  0  0  0  0  0  0
    1.6210    0.8377   -1.5946 H   0  0  0  0  0  0  0  0  0  0  0  0
    4.3451   -1.2369    1.7786 H   0  0  0  0  0  0  0  0  0  0  0  0
    3.9010   -2.3876    0.4852 H   0  0  0  0  0  0  0  0  0  0  0  0
   -0.8073   -0.1515   -1.5149 H   0  0  0  0  0  0  0  0  0  0  0  0
   -0.5114   -0.7937    0.1399 H   0  0  0  0  0  0  0  0  0  0  0  0
    1.2222    0.1340    1.8925 H   0  0  0  0  0  0  0  0  0  0  0  0
    4.8184   -0.7690   -1.6839 H   0  0  0  0  0  0  0  0  0  0  0  0
    2.2639    2.4068    0.6799 H   0  0  0  0  0  0  0  0  0  0  0  0
    6.1322   -2.2902    0.8595 H   0  0  0  0  0  0  0  0  0  0  0  0
   -4.4588    0.9703    0.5851 H   0  0  0  0  0  0  0  0  0  0  0  0
   -5.4542   -1.8090   -0.3058 H   0  0  0  0  0  0  0  0  0  0  0  0
   -7.2537   -1.0083    1.3082 H   0  0  0  0  0  0  0  0  0  0  0  0
   -7.5594   -0.3766   -0.3214 H   0  0  0  0  0  0  0  0  0  0  0  0
   -6.8583    0.6758    0.9210 H   0  0  0  0  0  0  0  0  0  0  0  0
  1  8  1  0  0  0  0
  1 25  1  0  0  0  0
  2  9  1  0  0  0  0
  2 26  1  0  0  0  0
  3 10  1  0  0  0  0
  3 27  1  0  0  0  0
  4 11  1  0  0  0  0
  4 28  1  0  0  0  0
  5 13  1  0  0  0  0
  5 14  1  0  0  0  0
  6 12  2  0  0  0  0
  7 14  2  0  0  0  0
  8  9  1  0  0  0  0
  8 10  1  0  0  0  0
  8 18  1  0  0  0  0
  9 11  1  0  0  0  0
  9 19  1  0  0  0  0
 10 12  1  0  0  0  0
 10 20  1  0  0  0  0
 11 21  1  0  0  0  0
 11 22  1  0  0  0  0
 12 13  1  0  0  0  0
 13 23  1  0  0  0  0
 13 24  1  0  0  0  0
 14 15  1  0  0  0  0
 15 16  2  0  0  0  0
 15 29  1  0  0  0  0
 16 17  1  0  0  0  0
 16 30  1  0  0  0  0
 17 31  1  0  0  0  0
 17 32  1  0  0  0  0
 17 33  1  0  0  0  0
M  END
> <PUBCHEM_COMPOUND_CID>
102115076

> <PUBCHEM_CONFORMER_RMSD>
0.8

> <PUBCHEM_CONFORMER_DIVERSEORDER>
1
51
42
37
2
134
54
110
212
102
137
20
82
104
158
75
210
35
123
140
80
44
50
251
6
236
188
26
76
205
97
101
89
23
202
108
43
117
8
206
174
160
198
59
256
120
180
196
149
60
154
9
147
181
153
189
57
260
95
39
179
146
3
258
173
31
4
150
168
228
53
162
46
217
92
166
86
171
138
204
221
141
187
220
33
70
58
10
255
148
62
248
67
83
159
7
127
243
93
238
135
69
226
223
264
61
77
232
155
103
184
152
208
87
246
45
114
156
191
132
203
143
68
214
40
207
131
14
56
29
165
233
119
244
71
118
136
17
247
85
49
27
219
157
111
74
199
21
19
213
139
201
263
185
24
96
175
34
183
161
133
211
129
105
107
128
250
99
78
66
91
55
109
197
215
72
164
100
64
84
253
32
38
225
36
122
170
239
113
125
11
151
25
193
98
218
262
126
22
121
178
182
216
242
192
234
169
81
145
48
5
209
73
124
13
190
52
41
144
167
254
227
240
235
94
65
249
194
12
241
142
88
30
231
261
229
200
259
47
245
224
115
106
63
28
230
18
237
172
176
222
130
163
112
252
16
186
116
195
177
257
15
90
79

> <PUBCHEM_MMFF94_PARTIAL_CHARGES>
23
1 -0.68
10 0.34
11 0.28
12 0.45
13 0.34
14 0.71
15 -0.14
16 -0.29
17 0.14
2 -0.68
25 0.4
26 0.4
27 0.4
28 0.4
29 0.15
3 -0.68
30 0.15
4 -0.68
5 -0.43
6 -0.57
7 -0.57
8 0.28
9 0.28

> <PUBCHEM_EFFECTIVE_ROTOR_COUNT>
8

> <PUBCHEM_PHARMACOPHORE_FEATURES>
11
1 1 acceptor
1 1 donor
1 17 hydrophobe
1 2 acceptor
1 2 donor
1 3 acceptor
1 3 donor
1 4 acceptor
1 4 donor
1 6 acceptor
1 7 acceptor

> <PUBCHEM_HEAVY_ATOM_COUNT>
17

> <PUBCHEM_ATOM_DEF_STEREO_COUNT>
3

> <PUBCHEM_ATOM_UDEF_STEREO_COUNT>
0

> <PUBCHEM_BOND_DEF_STEREO_COUNT>
1

> <PUBCHEM_BOND_UDEF_STEREO_COUNT>
0

> <PUBCHEM_ISOTOPIC_ATOM_COUNT>
0

> <PUBCHEM_COMPONENT_COUNT>
1

> <PUBCHEM_CACTVS_TAUTO_COUNT>
1

> <PUBCHEM_CONFORMER_ID>
0616270400000001

> <PUBCHEM_MMFF94_ENERGY>
24.5608

> <PUBCHEM_FEATURE_SELFOVERLAP>
55.848

> <PUBCHEM_SHAPE_FINGERPRINT>
10670039 82 9583249395877568314
10753850 27 17822567223154763466
11128504 68 13551190009131547755
12553582 1 18261374646729744426
12616999 72 14562803352756603320
12714333 28 8502652606198200875
12841375 25 18335137583529115212
13685833 64 18407761439019293099
13862211 1 18413105074542342159
13955234 65 18264770042079866696
14123256 10 11818996283793471031
14251718 22 11818996292836774627
14251752 14 17458617857526933653
14251764 18 18060136574395806215
14350574 20 17821728333909747030
14455015 7 17894917347573269491
14528608 73 10665225969295219523
15188451 53 17131255983350755263
15527383 91 17917706916091334384
15885798 251 18412545414138288957
17834072 8 18187636982540998517
1813 80 18261122845771649188
18186145 218 17676758877186791973
19141452 34 17917706929103213839
19784866 140 17749104465845793569
19784866 240 18335144167523803067
20281475 54 18340481291855176717
20388580 30 18260552229634056444
20645477 70 18261109716161892397
20671657 53 18261111863835886380
21267235 1 18408609136413869578
23016692 55 18410864243658276318
23218964 4 18335420158644850373
3004659 81 17749107768944955154
3060560 45 14779267518806167290
328317 168 9151169861522731663
3472631 163 9294989294098614114
351380 180 15410896258459147843
351380 3 18334009471724872634
4072396 5 17561088003645709485
42 15 18060701701902843295
4325135 7 18335704962374417300
465052 167 18408328795482767415
5104073 3 18129667538369416723
5207 217 9295279543972760009
522135 26 18187365462654972917
5374978 207 17275387624818327385
559249 180 18336543807783153465
59682541 52 12613023939062287210
8863177 126 17897178016415800387

> <PUBCHEM_SHAPE_MULTIPOLES>
308.77
13.85
1.74
0.95
12.78
0.7
-0.05
-7.73
-1.72
-1.43
-0.01
-0.65
-0.12
-0.45

> <PUBCHEM_SHAPE_SELFOVERLAP>
597.019

> <PUBCHEM_SHAPE_VOLUME>
186

> <PUBCHEM_COORDINATE_TYPE>
2
5
10