102123498
  -OEChem-05072106003D

 66 67  0     1  0  0  0  0  0999 V2000
    2.3109    0.7027   -0.2919 O   0  0  0  0  0  0  0  0  0  0  0  0
   -1.6899    1.5069    0.3960 O   0  0  0  0  0  0  0  0  0  0  0  0
    3.7882   -0.5991    1.0328 O   0  0  0  0  0  0  0  0  0  0  0  0
   -2.3142   -0.4836   -0.6513 O   0  0  0  0  0  0  0  0  0  0  0  0
    0.6099    2.8806   -0.5954 O   0  0  0  0  0  0  0  0  0  0  0  0
    0.3544   -1.4246   -0.4031 O   0  0  0  0  0  0  0  0  0  0  0  0
    5.5838    1.6440    0.9722 O   0  0  0  0  0  0  0  0  0  0  0  0
    6.3770    1.2278   -1.6462 O   0  0  0  0  0  0  0  0  0  0  0  0
    5.8691   -1.6388   -1.8090 O   0  0  0  0  0  0  0  0  0  0  0  0
   -2.3564    3.5794    2.3930 O   0  0  0  0  0  0  0  0  0  0  0  0
    3.4096   -3.2997    1.2058 O   0  0  0  0  0  0  0  0  0  0  0  0
   -2.9340   -3.3088   -0.5241 O   0  0  0  0  0  0  0  0  0  0  0  0
   -4.5901   -1.7173   -1.9040 O   0  0  0  0  0  0  0  0  0  0  0  0
   -3.6942   -4.0108    2.2819 O   0  0  0  0  0  0  0  0  0  0  0  0
   -5.1170    0.8051   -2.4454 O   0  0  0  0  0  0  0  0  0  0  0  0
   -5.6089    2.8275   -0.7811 O   0  0  0  0  0  0  0  0  0  0  0  0
    1.0700    0.7295    0.4080 C   0  0  1  0  0  0  0  0  0  0  0  0
    0.6313    2.1746    0.6469 C   0  0  2  0  0  0  0  0  0  0  0  0
    0.0216   -0.0364   -0.3984 C   0  0  2  0  0  0  0  0  0  0  0  0
   -0.7744    2.1954    1.2572 C   0  0  1  0  0  0  0  0  0  0  0  0
    3.4146    0.7160    0.6071 C   0  0  1  0  0  0  0  0  0  0  0  0
   -1.3669    0.1278    0.2239 C   0  0  1  0  0  0  0  0  0  0  0  0
    4.5999    1.4296   -0.0413 C   0  0  2  0  0  0  0  0  0  0  0  0
    5.1925    0.5911   -1.1750 C   0  0  2  0  0  0  0  0  0  0  0  0
    5.5043   -0.8277   -0.6954 C   0  0  1  0  0  0  0  0  0  0  0  0
    4.2701   -1.4385   -0.0199 C   0  0  1  0  0  0  0  0  0  0  0  0
   -1.3042    3.6121    1.4453 C   0  0  0  0  0  0  0  0  0  0  0  0
   -3.4276   -1.0039    0.0690 C   0  0  2  0  0  0  0  0  0  0  0  0
    4.5840   -2.8006    0.5927 C   0  0  0  0  0  0  0  0  0  0  0  0
   -3.1060   -2.4208    0.5798 C   0  0  1  0  0  0  0  0  0  0  0  0
   -4.7129   -0.8770   -0.7631 C   0  0  1  0  0  0  0  0  0  0  0  0
   -4.2256   -2.9755    1.4610 C   0  0  0  0  0  0  0  0  0  0  0  0
   -5.0469    0.5336   -1.2457 C   0  0  0  0  0  0  0  0  0  0  0  0
   -5.3223    1.5796   -0.1826 C   0  0  0  0  0  0  0  0  0  0  0  0
    1.1827    0.2156    1.3740 H   0  0  0  0  0  0  0  0  0  0  0  0
    1.3448    2.6955    1.2933 H   0  0  0  0  0  0  0  0  0  0  0  0
    0.0233    0.2869   -1.4456 H   0  0  0  0  0  0  0  0  0  0  0  0
   -0.7680    1.6820    2.2281 H   0  0  0  0  0  0  0  0  0  0  0  0
    3.1573    1.2651    1.5215 H   0  0  0  0  0  0  0  0  0  0  0  0
   -1.3776   -0.3639    1.2059 H   0  0  0  0  0  0  0  0  0  0  0  0
    4.3071    2.4122   -0.4291 H   0  0  0  0  0  0  0  0  0  0  0  0
    4.4952    0.5488   -2.0209 H   0  0  0  0  0  0  0  0  0  0  0  0
    6.3596   -0.8081   -0.0098 H   0  0  0  0  0  0  0  0  0  0  0  0
    3.4585   -1.5793   -0.7463 H   0  0  0  0  0  0  0  0  0  0  0  0
   -1.6970    4.0256    0.5107 H   0  0  0  0  0  0  0  0  0  0  0  0
   -0.5260    4.2731    1.8397 H   0  0  0  0  0  0  0  0  0  0  0  0
   -3.5890   -0.3732    0.9549 H   0  0  0  0  0  0  0  0  0  0  0  0
    5.3523   -2.7109    1.3679 H   0  0  0  0  0  0  0  0  0  0  0  0
    4.9170   -3.5156   -0.1657 H   0  0  0  0  0  0  0  0  0  0  0  0
   -0.1283    2.5395   -1.1278 H   0  0  0  0  0  0  0  0  0  0  0  0
    0.3629   -1.7373    0.5176 H   0  0  0  0  0  0  0  0  0  0  0  0
   -2.1562   -2.4266    1.1248 H   0  0  0  0  0  0  0  0  0  0  0  0
   -5.5810   -1.2308   -0.1973 H   0  0  0  0  0  0  0  0  0  0  0  0
    5.1938    2.2323    1.6412 H   0  0  0  0  0  0  0  0  0  0  0  0
    6.1317    2.1200   -1.9454 H   0  0  0  0  0  0  0  0  0  0  0  0
    5.1172   -1.6605   -2.4252 H   0  0  0  0  0  0  0  0  0  0  0  0
   -2.6769    4.4914    2.4980 H   0  0  0  0  0  0  0  0  0  0  0  0
   -4.6208   -2.2049    2.1301 H   0  0  0  0  0  0  0  0  0  0  0  0
   -5.0394   -3.4009    0.8652 H   0  0  0  0  0  0  0  0  0  0  0  0
    3.6323   -4.1637    1.5922 H   0  0  0  0  0  0  0  0  0  0  0  0
   -2.7369   -4.1899   -0.1625 H   0  0  0  0  0  0  0  0  0  0  0  0
   -3.7850   -1.4530   -2.3817 H   0  0  0  0  0  0  0  0  0  0  0  0
   -6.1845    1.2632    0.4107 H   0  0  0  0  0  0  0  0  0  0  0  0
   -4.4452    1.6985    0.4561 H   0  0  0  0  0  0  0  0  0  0  0  0
   -4.4248   -4.3415    2.8319 H   0  0  0  0  0  0  0  0  0  0  0  0
   -5.7923    3.4557   -0.0619 H   0  0  0  0  0  0  0  0  0  0  0  0
  1 17  1  0  0  0  0
  1 21  1  0  0  0  0
  2 20  1  0  0  0  0
  2 22  1  0  0  0  0
  3 21  1  0  0  0  0
  3 26  1  0  0  0  0
  4 22  1  0  0  0  0
  4 28  1  0  0  0  0
  5 18  1  0  0  0  0
  5 50  1  0  0  0  0
  6 19  1  0  0  0  0
  6 51  1  0  0  0  0
  7 23  1  0  0  0  0
  7 54  1  0  0  0  0
  8 24  1  0  0  0  0
  8 55  1  0  0  0  0
  9 25  1  0  0  0  0
  9 56  1  0  0  0  0
 10 27  1  0  0  0  0
 10 57  1  0  0  0  0
 11 29  1  0  0  0  0
 11 60  1  0  0  0  0
 12 30  1  0  0  0  0
 12 61  1  0  0  0  0
 13 31  1  0  0  0  0
 13 62  1  0  0  0  0
 14 32  1  0  0  0  0
 14 65  1  0  0  0  0
 15 33  2  0  0  0  0
 16 34  1  0  0  0  0
 16 66  1  0  0  0  0
 17 18  1  0  0  0  0
 17 19  1  0  0  0  0
 17 35  1  0  0  0  0
 18 20  1  0  0  0  0
 18 36  1  0  0  0  0
 19 22  1  0  0  0  0
 19 37  1  0  0  0  0
 20 27  1  0  0  0  0
 20 38  1  0  0  0  0
 21 23  1  0  0  0  0
 21 39  1  0  0  0  0
 22 40  1  0  0  0  0
 23 24  1  0  0  0  0
 23 41  1  0  0  0  0
 24 25  1  0  0  0  0
 24 42  1  0  0  0  0
 25 26  1  0  0  0  0
 25 43  1  0  0  0  0
 26 29  1  0  0  0  0
 26 44  1  0  0  0  0
 27 45  1  0  0  0  0
 27 46  1  0  0  0  0
 28 30  1  0  0  0  0
 28 31  1  0  0  0  0
 28 47  1  0  0  0  0
 29 48  1  0  0  0  0
 29 49  1  0  0  0  0
 30 32  1  0  0  0  0
 30 52  1  0  0  0  0
 31 33  1  0  0  0  0
 31 53  1  0  0  0  0
 32 58  1  0  0  0  0
 32 59  1  0  0  0  0
 33 34  1  0  0  0  0
 34 63  1  0  0  0  0
 34 64  1  0  0  0  0
M  END
> <PUBCHEM_COMPOUND_CID>
102123498

> <PUBCHEM_CONFORMER_RMSD>
1.2

> <PUBCHEM_CONFORMER_DIVERSEORDER>
1
8
24
22
4
9
23
21
12
19
11
10
16
6
17
20
18
14
7
3
15
25
5
2
13

> <PUBCHEM_MMFF94_PARTIAL_CHARGES>
45
1 -0.56
10 -0.68
11 -0.68
12 -0.68
13 -0.68
14 -0.68
15 -0.57
16 -0.68
17 0.28
18 0.28
19 0.28
2 -0.56
20 0.28
21 0.56
22 0.56
23 0.28
24 0.28
25 0.28
26 0.28
27 0.28
28 0.28
29 0.28
3 -0.56
30 0.28
31 0.34
32 0.28
33 0.45
34 0.34
4 -0.56
5 -0.68
50 0.4
51 0.4
54 0.4
55 0.4
56 0.4
57 0.4
6 -0.68
60 0.4
61 0.4
62 0.4
65 0.4
66 0.4
7 -0.68
8 -0.68
9 -0.68

> <PUBCHEM_EFFECTIVE_ROTOR_COUNT>
13.4

> <PUBCHEM_PHARMACOPHORE_FEATURES>
29
1 1 acceptor
1 10 acceptor
1 10 donor
1 11 acceptor
1 11 donor
1 12 acceptor
1 12 donor
1 13 acceptor
1 13 donor
1 14 acceptor
1 14 donor
1 15 acceptor
1 16 acceptor
1 16 donor
1 2 acceptor
1 3 acceptor
1 4 acceptor
1 5 acceptor
1 5 donor
1 6 acceptor
1 6 donor
1 7 acceptor
1 7 donor
1 8 acceptor
1 8 donor
1 9 acceptor
1 9 donor
6 2 17 18 19 20 22 rings
6 3 21 23 24 25 26 rings

> <PUBCHEM_HEAVY_ATOM_COUNT>
34

> <PUBCHEM_ATOM_DEF_STEREO_COUNT>
13

> <PUBCHEM_ATOM_UDEF_STEREO_COUNT>
0

> <PUBCHEM_BOND_DEF_STEREO_COUNT>
0

> <PUBCHEM_BOND_UDEF_STEREO_COUNT>
0

> <PUBCHEM_ISOTOPIC_ATOM_COUNT>
0

> <PUBCHEM_COMPONENT_COUNT>
1

> <PUBCHEM_CACTVS_TAUTO_COUNT>
1

> <PUBCHEM_CONFORMER_ID>
061647EA00000001

> <PUBCHEM_MMFF94_ENERGY>
89.3888

> <PUBCHEM_FEATURE_SELFOVERLAP>
147.383

> <PUBCHEM_SHAPE_FINGERPRINT>
10906281 52 18200603480027705615
11796584 16 18114453548071739738
12788726 201 18129095620138932049
13690498 29 18190744335287149391
14251757 5 18409446969028105681
14790565 3 18046623400597467425
14931854 50 18199167535518312733
15082195 135 18336556001549527740
15183329 4 18334287639586996821
15250474 111 18339923689284147650
15420108 30 17190098224384421553
16628084 112 17975693888251440971
19958102 18 18190166919646225733
21033650 10 15430870987453669342
21279426 13 18341605980486562677
21703447 108 17409343510475061423
22440779 20 17243325939368243131
23559900 14 18411974793368021920
25269216 80 16298964159319921283
3004659 81 18260821571623528834
4058900 60 17973723576658596913
4073 2 18261391191212553618
504579 68 18337966601847362836
5104073 3 18201723921331802608
5283173 99 18338229375988249349
5912855 24 18340220613009945410
613672 6 18269544087070067170
7226269 152 18271525300171895857

> <PUBCHEM_SHAPE_MULTIPOLES>
605.8
15.21
4.48
1.74
8.5
0.91
0.01
3.14
6.03
-3.6
-2.76
-1.28
0.03
0.61

> <PUBCHEM_SHAPE_SELFOVERLAP>
1231.98

> <PUBCHEM_SHAPE_VOLUME>
344.8

> <PUBCHEM_COORDINATE_TYPE>
2
5
10