102589824
  -OEChem-05072106003D

 27 26  0     1  0  0  0  0  0999 V2000
   -2.1452    1.1005    0.6247 O   0  0  0  0  0  0  0  0  0  0  0  0
    0.1134   -0.2945    1.7480 O   0  0  0  0  0  0  0  0  0  0  0  0
    0.3176    1.8627   -0.1519 O   0  0  0  0  0  0  0  0  0  0  0  0
   -3.6420   -0.1429   -1.3675 O   0  0  0  0  0  0  0  0  0  0  0  0
    2.8380    1.1639    0.2483 O   0  0  0  0  0  0  0  0  0  0  0  0
    4.0435   -1.1453   -0.3437 O   0  0  0  0  0  0  0  0  0  0  0  0
   -1.8046   -0.2360    0.2404 C   0  0  2  0  0  0  0  0  0  0  0  0
   -0.2670   -0.4479    0.3747 C   0  0  1  0  0  0  0  0  0  0  0  0
    0.6130    0.5095   -0.4525 C   0  0  2  0  0  0  0  0  0  0  0  0
   -2.2461   -0.3919   -1.2289 C   0  0  0  0  0  0  0  0  0  0  0  0
   -2.5893   -1.1985    1.1440 C   0  0  0  0  0  0  0  0  0  0  0  0
    2.1123    0.2950   -0.2347 C   0  0  0  0  0  0  0  0  0  0  0  0
    2.6563   -1.0746   -0.6009 C   0  0  0  0  0  0  0  0  0  0  0  0
   -0.0458   -1.4857    0.0986 H   0  0  0  0  0  0  0  0  0  0  0  0
    0.4294    0.3631   -1.5221 H   0  0  0  0  0  0  0  0  0  0  0  0
   -2.0323   -1.4000   -1.5992 H   0  0  0  0  0  0  0  0  0  0  0  0
   -1.7455    0.3383   -1.8711 H   0  0  0  0  0  0  0  0  0  0  0  0
   -2.3359   -1.0415    2.1983 H   0  0  0  0  0  0  0  0  0  0  0  0
   -2.3828   -2.2427    0.8884 H   0  0  0  0  0  0  0  0  0  0  0  0
   -3.6692   -1.0297    1.0682 H   0  0  0  0  0  0  0  0  0  0  0  0
   -3.1040    1.2117    0.5059 H   0  0  0  0  0  0  0  0  0  0  0  0
    1.0084   -0.6580    1.8542 H   0  0  0  0  0  0  0  0  0  0  0  0
    0.7930    2.4179   -0.7934 H   0  0  0  0  0  0  0  0  0  0  0  0
    2.4825   -1.2513   -1.6659 H   0  0  0  0  0  0  0  0  0  0  0  0
    2.1632   -1.8430   -0.0022 H   0  0  0  0  0  0  0  0  0  0  0  0
   -3.8606   -0.2604   -2.3077 H   0  0  0  0  0  0  0  0  0  0  0  0
    4.3436   -2.0267   -0.6241 H   0  0  0  0  0  0  0  0  0  0  0  0
  1  7  1  0  0  0  0
  1 21  1  0  0  0  0
  2  8  1  0  0  0  0
  2 22  1  0  0  0  0
  3  9  1  0  0  0  0
  3 23  1  0  0  0  0
  4 10  1  0  0  0  0
  4 26  1  0  0  0  0
  5 12  2  0  0  0  0
  6 13  1  0  0  0  0
  6 27  1  0  0  0  0
  7  8  1  0  0  0  0
  7 10  1  0  0  0  0
  7 11  1  0  0  0  0
  8  9  1  0  0  0  0
  8 14  1  0  0  0  0
  9 12  1  0  0  0  0
  9 15  1  0  0  0  0
 10 16  1  0  0  0  0
 10 17  1  0  0  0  0
 11 18  1  0  0  0  0
 11 19  1  0  0  0  0
 11 20  1  0  0  0  0
 12 13  1  0  0  0  0
 13 24  1  0  0  0  0
 13 25  1  0  0  0  0
M  END
> <PUBCHEM_COMPOUND_CID>
102589824

> <PUBCHEM_CONFORMER_RMSD>
0.8

> <PUBCHEM_CONFORMER_DIVERSEORDER>
1
68
37
84
78
34
20
24
41
81
60
49
31
16
88
75
39
48
59
13
19
50
92
67
14
26
90
80
10
3
28
54
89
71
11
95
73
65
30
32
7
62
29
46
57
6
77
93
35
69
83
5
47
17
86
12
40
63
85
36
2
76
72
18
42
23
52
45
21
56
64
53
51
79
70
27
44
8
55
43
91
61
38
15
9
66
94
87
33
74
4
25
58
22
82

> <PUBCHEM_MMFF94_PARTIAL_CHARGES>
17
1 -0.68
10 0.28
12 0.45
13 0.34
2 -0.68
21 0.4
22 0.4
23 0.4
26 0.4
27 0.4
3 -0.68
4 -0.68
5 -0.57
6 -0.68
7 0.28
8 0.28
9 0.34

> <PUBCHEM_EFFECTIVE_ROTOR_COUNT>
5

> <PUBCHEM_PHARMACOPHORE_FEATURES>
11
1 1 acceptor
1 1 donor
1 2 acceptor
1 2 donor
1 3 acceptor
1 3 donor
1 4 acceptor
1 4 donor
1 5 acceptor
1 6 acceptor
1 6 donor

> <PUBCHEM_HEAVY_ATOM_COUNT>
13

> <PUBCHEM_ATOM_DEF_STEREO_COUNT>
3

> <PUBCHEM_ATOM_UDEF_STEREO_COUNT>
0

> <PUBCHEM_BOND_DEF_STEREO_COUNT>
0

> <PUBCHEM_BOND_UDEF_STEREO_COUNT>
0

> <PUBCHEM_ISOTOPIC_ATOM_COUNT>
0

> <PUBCHEM_COMPONENT_COUNT>
1

> <PUBCHEM_CACTVS_TAUTO_COUNT>
1

> <PUBCHEM_CONFORMER_ID>
061D658000000001

> <PUBCHEM_MMFF94_ENERGY>
25.8916

> <PUBCHEM_FEATURE_SELFOVERLAP>
55.874

> <PUBCHEM_SHAPE_FINGERPRINT>
11769659 78 17704066287581113110
12716758 59 17967250896943061347
12932764 1 17561093530809832792
13296908 3 18334019418863472002
13705890 14 18339918320005172526
14577589 140 17987808397022623966
15310529 11 18130235946540195673
16945 1 18128257980914417776
18186145 218 17676491648495412804
20201158 50 18261394421175874030
20279233 1 18040430018753542750
20645477 70 18413669110531834342
20653085 51 16877666781308422501
20711985 344 18116707405306914180
20715346 28 18114746052471504264
23402539 116 16271080398642430569
23557571 272 17096091427491771532
2748010 2 17604993813303050269
3248919 1 18335984246089579672
369184 2 17704081702223857163
5084963 1 17386576897881421155
528862 383 14691137353402115426
8030462 33 18343029916579347420

> <PUBCHEM_SHAPE_MULTIPOLES>
232.32
5.64
1.34
1.24
1.95
0.2
-0.02
-1.31
-1.6
0.29
0.21
-0.78
-0.17
0.61

> <PUBCHEM_SHAPE_SELFOVERLAP>
446.338

> <PUBCHEM_SHAPE_VOLUME>
141.2

> <PUBCHEM_COORDINATE_TYPE>
2
5
10