102589818
  -OEChem-05072106003D

 27 26  0     1  0  0  0  0  0999 V2000
   -2.1178    1.2834   -0.3603 O   0  0  0  0  0  0  0  0  0  0  0  0
    0.0907    0.0887   -1.7669 O   0  0  0  0  0  0  0  0  0  0  0  0
    0.3677    1.8105    0.5251 O   0  0  0  0  0  0  0  0  0  0  0  0
   -3.6686   -0.6682    1.2278 O   0  0  0  0  0  0  0  0  0  0  0  0
    2.8817    1.1590    0.0339 O   0  0  0  0  0  0  0  0  0  0  0  0
    4.0228   -1.2559    0.0765 O   0  0  0  0  0  0  0  0  0  0  0  0
   -1.8112   -0.1115   -0.2588 C   0  0  1  0  0  0  0  0  0  0  0  0
   -0.2804   -0.3310   -0.4477 C   0  0  2  0  0  0  0  0  0  0  0  0
    0.6318    0.4182    0.5432 C   0  0  1  0  0  0  0  0  0  0  0  0
   -2.2509   -0.5516    1.1522 C   0  0  0  0  0  0  0  0  0  0  0  0
   -2.6251   -0.8497   -1.3317 C   0  0  0  0  0  0  0  0  0  0  0  0
    2.1233    0.2177    0.2656 C   0  0  0  0  0  0  0  0  0  0  0  0
    2.6360   -1.2096    0.3411 C   0  0  0  0  0  0  0  0  0  0  0  0
   -0.0838   -1.4082   -0.3915 H   0  0  0  0  0  0  0  0  0  0  0  0
    0.4442    0.0635    1.5628 H   0  0  0  0  0  0  0  0  0  0  0  0
   -1.9396    0.1751    1.9098 H   0  0  0  0  0  0  0  0  0  0  0  0
   -1.8298   -1.5320    1.3994 H   0  0  0  0  0  0  0  0  0  0  0  0
   -2.3335   -0.5241   -2.3366 H   0  0  0  0  0  0  0  0  0  0  0  0
   -3.6959   -0.6310   -1.2552 H   0  0  0  0  0  0  0  0  0  0  0  0
   -2.4817   -1.9331   -1.2657 H   0  0  0  0  0  0  0  0  0  0  0  0
   -3.0723    1.3927   -0.2093 H   0  0  0  0  0  0  0  0  0  0  0  0
    0.9753   -0.2661   -1.9573 H   0  0  0  0  0  0  0  0  0  0  0  0
    0.8618    2.2138    1.2593 H   0  0  0  0  0  0  0  0  0  0  0  0
    2.1290   -1.8254   -0.4045 H   0  0  0  0  0  0  0  0  0  0  0  0
    2.4525   -1.5994    1.3461 H   0  0  0  0  0  0  0  0  0  0  0  0
   -3.8834   -0.9519    2.1327 H   0  0  0  0  0  0  0  0  0  0  0  0
    4.3019   -2.1831    0.1655 H   0  0  0  0  0  0  0  0  0  0  0  0
  1  7  1  0  0  0  0
  1 21  1  0  0  0  0
  2  8  1  0  0  0  0
  2 22  1  0  0  0  0
  3  9  1  0  0  0  0
  3 23  1  0  0  0  0
  4 10  1  0  0  0  0
  4 26  1  0  0  0  0
  5 12  2  0  0  0  0
  6 13  1  0  0  0  0
  6 27  1  0  0  0  0
  7  8  1  0  0  0  0
  7 10  1  0  0  0  0
  7 11  1  0  0  0  0
  8  9  1  0  0  0  0
  8 14  1  0  0  0  0
  9 12  1  0  0  0  0
  9 15  1  0  0  0  0
 10 16  1  0  0  0  0
 10 17  1  0  0  0  0
 11 18  1  0  0  0  0
 11 19  1  0  0  0  0
 11 20  1  0  0  0  0
 12 13  1  0  0  0  0
 13 24  1  0  0  0  0
 13 25  1  0  0  0  0
M  END
> <PUBCHEM_COMPOUND_CID>
102589818

> <PUBCHEM_CONFORMER_RMSD>
0.8

> <PUBCHEM_CONFORMER_DIVERSEORDER>
1
24
17
89
93
71
68
45
25
51
39
9
56
59
16
50
36
81
65
77
67
90
7
58
95
12
66
20
6
5
43
85
49
88
31
22
52
80
32
70
15
72
13
91
92
78
83
3
84
60
30
57
82
29
47
42
2
64
28
87
79
94
53
4
62
10
21
76
14
86
41
48
33
54
34
61
44
74
19
69
8
75
37
40
26
11
96
27
73
38
18
35
55
63
23
46

> <PUBCHEM_MMFF94_PARTIAL_CHARGES>
17
1 -0.68
10 0.28
12 0.45
13 0.34
2 -0.68
21 0.4
22 0.4
23 0.4
26 0.4
27 0.4
3 -0.68
4 -0.68
5 -0.57
6 -0.68
7 0.28
8 0.28
9 0.34

> <PUBCHEM_EFFECTIVE_ROTOR_COUNT>
5

> <PUBCHEM_PHARMACOPHORE_FEATURES>
11
1 1 acceptor
1 1 donor
1 2 acceptor
1 2 donor
1 3 acceptor
1 3 donor
1 4 acceptor
1 4 donor
1 5 acceptor
1 6 acceptor
1 6 donor

> <PUBCHEM_HEAVY_ATOM_COUNT>
13

> <PUBCHEM_ATOM_DEF_STEREO_COUNT>
3

> <PUBCHEM_ATOM_UDEF_STEREO_COUNT>
0

> <PUBCHEM_BOND_DEF_STEREO_COUNT>
0

> <PUBCHEM_BOND_UDEF_STEREO_COUNT>
0

> <PUBCHEM_ISOTOPIC_ATOM_COUNT>
0

> <PUBCHEM_COMPONENT_COUNT>
1

> <PUBCHEM_CACTVS_TAUTO_COUNT>
1

> <PUBCHEM_CONFORMER_ID>
061D657A00000001

> <PUBCHEM_MMFF94_ENERGY>
25.8481

> <PUBCHEM_FEATURE_SELFOVERLAP>
55.869

> <PUBCHEM_SHAPE_FINGERPRINT>
12251169 10 17489873721524380659
124424 183 18340483370540427729
12897270 3 16588015788878479594
12932741 1 17531515568442263909
12932764 1 18130786793302351912
13296908 3 17530962496871555218
15310529 11 18410854390818656524
15775835 57 17774725367184382569
16945 1 18265610068672888576
17844478 74 18113901567317001609
18186145 218 17313381210619559696
19422 9 17775002431530457974
20201158 50 18187920638923615730
20279233 1 17458330962116963362
20645477 70 18339347613404339222
20711985 344 17825086135210680324
20715346 28 17677043646081730311
207724 885 18131349734586516035
20871999 31 16008750203887721851
21293036 1 13623538969097127586
23402539 116 13542165170667817553
23557571 272 16588020255670880620
305870 269 14333134026809820046
3248919 1 17967802869044528420
369184 2 18343297085130550335
449060 23 16878230860848974187
5084963 1 17702650189803448341
528716 315 15285361712621945979

> <PUBCHEM_SHAPE_MULTIPOLES>
232.32
5.67
1.34
1.23
1.84
0.33
-0.17
-1.9
1.14
0.57
0.01
-1
-0.22
-0.11

> <PUBCHEM_SHAPE_SELFOVERLAP>
446.457

> <PUBCHEM_SHAPE_VOLUME>
141.1

> <PUBCHEM_COORDINATE_TYPE>
2
5
10