10400369
  -OEChem-05072106003D

 29 29  0     1  0  0  0  0  0999 V2000
   -3.5370   -0.1501   -0.1306 P   0  0  0  0  0  0  0  0  0  0  0  0
    1.4112   -1.0732   -0.2108 O   0  0  0  0  0  0  0  0  0  0  0  0
    0.3710   -0.3001    1.7468 O   0  0  0  0  0  0  0  0  0  0  0  0
    0.0732    2.1707    0.6167 O   0  0  0  0  0  0  0  0  0  0  0  0
    2.8258    2.1450   -0.7943 O   0  0  0  0  0  0  0  0  0  0  0  0
   -1.9996    0.1446    0.2822 O   0  0  0  0  0  0  0  0  0  0  0  0
    4.0140   -2.1264   -0.2601 O   0  0  0  0  0  0  0  0  0  0  0  0
   -3.7614   -1.6924    0.3009 O   0  0  0  0  0  0  0  0  0  0  0  0
   -3.4701   -0.2214   -1.7448 O   0  0  0  0  0  0  0  0  0  0  0  0
   -4.5387    0.8225    0.4198 O   0  0  0  0  0  0  0  0  0  0  0  0
    0.3559   -0.2501    0.3193 C   0  0  1  0  0  0  0  0  0  0  0  0
    0.7042    1.1606   -0.1447 C   0  0  2  0  0  0  0  0  0  0  0  0
    2.2094    1.1626    0.0172 C   0  0  1  0  0  0  0  0  0  0  0  0
    2.5614   -0.2405   -0.4640 C   0  0  1  0  0  0  0  0  0  0  0  0
   -0.9917   -0.7287   -0.1976 C   0  0  0  0  0  0  0  0  0  0  0  0
    3.7724   -0.8231    0.2440 C   0  0  0  0  0  0  0  0  0  0  0  0
    0.4363    1.3103   -1.1986 H   0  0  0  0  0  0  0  0  0  0  0  0
    2.5106    1.3484    1.0538 H   0  0  0  0  0  0  0  0  0  0  0  0
    2.7312   -0.2676   -1.5476 H   0  0  0  0  0  0  0  0  0  0  0  0
   -1.1888   -1.7424    0.1677 H   0  0  0  0  0  0  0  0  0  0  0  0
   -0.9997   -0.7578   -1.2923 H   0  0  0  0  0  0  0  0  0  0  0  0
    3.6042   -0.9103    1.3223 H   0  0  0  0  0  0  0  0  0  0  0  0
    4.6643   -0.2133    0.0730 H   0  0  0  0  0  0  0  0  0  0  0  0
    0.8464    0.4704    2.0966 H   0  0  0  0  0  0  0  0  0  0  0  0
    0.4430    3.0238    0.3321 H   0  0  0  0  0  0  0  0  0  0  0  0
    2.5478    2.0024   -1.7149 H   0  0  0  0  0  0  0  0  0  0  0  0
    3.2115   -2.6539   -0.1060 H   0  0  0  0  0  0  0  0  0  0  0  0
   -4.6555   -2.0854    0.2095 H   0  0  0  0  0  0  0  0  0  0  0  0
   -4.3062   -0.3023   -2.2512 H   0  0  0  0  0  0  0  0  0  0  0  0
  1  6  1  0  0  0  0
  1  8  1  0  0  0  0
  1  9  1  0  0  0  0
  1 10  2  0  0  0  0
  2 11  1  0  0  0  0
  2 14  1  0  0  0  0
  3 11  1  0  0  0  0
  3 24  1  0  0  0  0
  4 12  1  0  0  0  0
  4 25  1  0  0  0  0
  5 13  1  0  0  0  0
  5 26  1  0  0  0  0
  6 15  1  0  0  0  0
  7 16  1  0  0  0  0
  7 27  1  0  0  0  0
  8 28  1  0  0  0  0
  9 29  1  0  0  0  0
 11 12  1  0  0  0  0
 11 15  1  0  0  0  0
 12 13  1  0  0  0  0
 12 17  1  0  0  0  0
 13 14  1  0  0  0  0
 13 18  1  0  0  0  0
 14 16  1  0  0  0  0
 14 19  1  0  0  0  0
 15 20  1  0  0  0  0
 15 21  1  0  0  0  0
 16 22  1  0  0  0  0
 16 23  1  0  0  0  0
M  END
> <PUBCHEM_COMPOUND_CID>
10400369

> <PUBCHEM_CONFORMER_RMSD>
0.6

> <PUBCHEM_CONFORMER_DIVERSEORDER>
2
6
1
5
4
3

> <PUBCHEM_MMFF94_PARTIAL_CHARGES>
22
1 1.51
10 -0.7
11 0.56
12 0.28
13 0.28
14 0.28
15 0.28
16 0.28
2 -0.56
24 0.4
25 0.4
26 0.4
27 0.4
28 0.5
29 0.5
3 -0.68
4 -0.68
5 -0.68
6 -0.55
7 -0.68
8 -0.77
9 -0.77

> <PUBCHEM_EFFECTIVE_ROTOR_COUNT>
5

> <PUBCHEM_PHARMACOPHORE_FEATURES>
14
1 10 acceptor
1 2 acceptor
1 3 acceptor
1 3 donor
1 4 acceptor
1 4 donor
1 5 acceptor
1 5 donor
1 7 acceptor
1 7 donor
1 8 acceptor
1 9 acceptor
4 1 8 9 10 anion
5 2 11 12 13 14 rings

> <PUBCHEM_HEAVY_ATOM_COUNT>
16

> <PUBCHEM_ATOM_DEF_STEREO_COUNT>
4

> <PUBCHEM_ATOM_UDEF_STEREO_COUNT>
0

> <PUBCHEM_BOND_DEF_STEREO_COUNT>
0

> <PUBCHEM_BOND_UDEF_STEREO_COUNT>
0

> <PUBCHEM_ISOTOPIC_ATOM_COUNT>
0

> <PUBCHEM_COMPONENT_COUNT>
1

> <PUBCHEM_CACTVS_TAUTO_COUNT>
1

> <PUBCHEM_CONFORMER_ID>
009EB27100000002

> <PUBCHEM_MMFF94_ENERGY>
6.8903

> <PUBCHEM_FEATURE_SELFOVERLAP>
71.145

> <PUBCHEM_SHAPE_FINGERPRINT>
10062212 137 18131347497309741327
10130415 120 18411980256333937080
10922049 32 11458432310314950056
11471102 20 18408321090284746308
116883 192 18127138480661801244
12032990 46 18411141324614488826
12932764 1 17203327875033649731
13134695 92 18201147819466281804
13296908 3 18335702779866327395
13675066 3 18060416902273506883
13705890 14 18410855503162386778
15442244 35 18412549781850899785
16945 1 18187079525381120082
18186145 218 17822007618521663035
19422 9 18411704313575783871
20281475 54 18412825819625698167
20339313 130 18343022198391065602
20645477 70 18409168826571717198
20671657 53 18335705988296490542
21501925 9 18341889684719877434
221490 88 18263091074606833451
23402539 116 18271519810543931838
23402655 69 18413390947196318293
23526113 38 18042128811252250328
23557571 272 17416973828855360696
23559900 14 18408885140414609106
5104073 3 18411422842941572659
633830 44 17748826336748819997

> <PUBCHEM_SHAPE_MULTIPOLES>
280.3
7.7
1.84
0.99
4.75
0.4
0.01
-2.2
0.99
-1.41
0.05
0.41
0.01
-0.22

> <PUBCHEM_SHAPE_SELFOVERLAP>
550.758

> <PUBCHEM_SHAPE_VOLUME>
169.5

> <PUBCHEM_COORDINATE_TYPE>
2
5
10