10932367
  -OEChem-05072106003D

 24 23  0     1  0  0  0  0  0999 V2000
    4.6187   -0.2828   -0.1483 S   0  0  0  0  0  0  0  0  0  0  0  0
    0.2369   -0.2549   -1.5775 O   0  0  0  0  0  0  0  0  0  0  0  0
    2.0973    0.0634    1.5674 O   0  0  0  0  0  0  0  0  0  0  0  0
   -0.4233    1.9805    0.0006 O   0  0  0  0  0  0  0  0  0  0  0  0
   -2.7694    0.9967   -0.5552 O   0  0  0  0  0  0  0  0  0  0  0  0
   -3.8469   -1.3349    0.1455 O   0  0  0  0  0  0  0  0  0  0  0  0
    0.4343   -0.2795   -0.1626 C   0  0  1  0  0  0  0  0  0  0  0  0
    1.8935    0.1184    0.1543 C   0  0  2  0  0  0  0  0  0  0  0  0
   -0.6099    0.6525    0.4725 C   0  0  2  0  0  0  0  0  0  0  0  0
    2.9138   -0.7914   -0.5387 C   0  0  0  0  0  0  0  0  0  0  0  0
   -2.0335    0.2471    0.0885 C   0  0  0  0  0  0  0  0  0  0  0  0
   -2.5115   -1.1152    0.5535 C   0  0  0  0  0  0  0  0  0  0  0  0
    0.2672   -1.3065    0.1797 H   0  0  0  0  0  0  0  0  0  0  0  0
    2.0730    1.1496   -0.1768 H   0  0  0  0  0  0  0  0  0  0  0  0
   -0.5366    0.6577    1.5647 H   0  0  0  0  0  0  0  0  0  0  0  0
    2.7914   -0.7715   -1.6256 H   0  0  0  0  0  0  0  0  0  0  0  0
    2.7981   -1.8247   -0.1952 H   0  0  0  0  0  0  0  0  0  0  0  0
    0.3884    0.6567   -1.8810 H   0  0  0  0  0  0  0  0  0  0  0  0
   -2.4537   -1.1758    1.6436 H   0  0  0  0  0  0  0  0  0  0  0  0
   -1.8961   -1.8968    0.1044 H   0  0  0  0  0  0  0  0  0  0  0  0
    1.6204    0.8114    1.9642 H   0  0  0  0  0  0  0  0  0  0  0  0
   -1.0237    2.5572    0.5035 H   0  0  0  0  0  0  0  0  0  0  0  0
    5.2293   -1.2419   -0.8593 H   0  0  0  0  0  0  0  0  0  0  0  0
   -4.4053   -0.6915    0.6144 H   0  0  0  0  0  0  0  0  0  0  0  0
  1 10  1  0  0  0  0
  1 23  1  0  0  0  0
  2  7  1  0  0  0  0
  2 18  1  0  0  0  0
  3  8  1  0  0  0  0
  3 21  1  0  0  0  0
  4  9  1  0  0  0  0
  4 22  1  0  0  0  0
  5 11  2  0  0  0  0
  6 12  1  0  0  0  0
  6 24  1  0  0  0  0
  7  8  1  0  0  0  0
  7  9  1  0  0  0  0
  7 13  1  0  0  0  0
  8 10  1  0  0  0  0
  8 14  1  0  0  0  0
  9 11  1  0  0  0  0
  9 15  1  0  0  0  0
 10 16  1  0  0  0  0
 10 17  1  0  0  0  0
 11 12  1  0  0  0  0
 12 19  1  0  0  0  0
 12 20  1  0  0  0  0
M  END
> <PUBCHEM_COMPOUND_CID>
10932367

> <PUBCHEM_CONFORMER_RMSD>
0.6

> <PUBCHEM_CONFORMER_DIVERSEORDER>
2
49
69
55
74
38
53
95
72
1
50
39
70
96
9
79
109
87
88
15
101
48
16
8
91
106
89
35
108
31
17
14
100
56
98
6
86
44
25
61
57
58
34
21
13
90
71
114
46
40
76
102
30
62
37
81
54
94
12
113
24
27
65
5
80
84
92
41
110
97
63
20
36
19
64
4
52
3
107
68
112
99
43
33
111
82
83
7
85
75
93
23
60
59
105
103
77
18
51
73
29
28
26
78
104
11
47
67
10
42
45
32
22
66

> <PUBCHEM_MMFF94_PARTIAL_CHARGES>
17
1 -0.41
10 0.23
11 0.45
12 0.34
18 0.4
2 -0.68
21 0.4
22 0.4
23 0.18
24 0.4
3 -0.68
4 -0.68
5 -0.57
6 -0.68
7 0.28
8 0.28
9 0.34

> <PUBCHEM_EFFECTIVE_ROTOR_COUNT>
5

> <PUBCHEM_PHARMACOPHORE_FEATURES>
9
1 2 acceptor
1 2 donor
1 3 acceptor
1 3 donor
1 4 acceptor
1 4 donor
1 5 acceptor
1 6 acceptor
1 6 donor

> <PUBCHEM_HEAVY_ATOM_COUNT>
12

> <PUBCHEM_ATOM_DEF_STEREO_COUNT>
3

> <PUBCHEM_ATOM_UDEF_STEREO_COUNT>
0

> <PUBCHEM_BOND_DEF_STEREO_COUNT>
0

> <PUBCHEM_BOND_UDEF_STEREO_COUNT>
0

> <PUBCHEM_ISOTOPIC_ATOM_COUNT>
0

> <PUBCHEM_COMPONENT_COUNT>
1

> <PUBCHEM_CACTVS_TAUTO_COUNT>
11

> <PUBCHEM_CONFORMER_ID>
00A6D08F00000002

> <PUBCHEM_MMFF94_ENERGY>
14.5899

> <PUBCHEM_FEATURE_SELFOVERLAP>
45.701

> <PUBCHEM_SHAPE_FINGERPRINT>
10219947 1 17703792552267182447
10857977 72 18342451560562229145
11062470 55 12107788514718665486
11401426 45 14923943487861090166
12032990 46 18272093803016474654
12251169 10 16630529552490754087
12932764 1 17458060439233121293
14128692 85 17822301226865368037
14943859 89 11672066341344233630
14993402 34 16805325513186365954
15309172 13 16415197854107285446
17844478 74 17989488502698725360
18175812 5 18131910455415188757
20281407 28 18273218573463066970
20671657 1 15768349782140511088
20671657 53 17313107479126070718
20715346 28 18131057255845720265
20871999 31 18187361026238417485
21061003 4 17846781827609491905
21293036 1 13479132419224978947
22485316 2 18260546689231615938
23402539 116 18186516588708356582
23402655 69 13262942049621486283
23532345 42 18340479062577336912
23559900 14 18337669694842270730
5084963 1 18131352973255711784

> <PUBCHEM_SHAPE_MULTIPOLES>
221.46
6.84
1.27
1.02
3.41
0.28
0.01
-2.24
0.06
-0.95
0
0.3
-0.03
0.42

> <PUBCHEM_SHAPE_SELFOVERLAP>
410.497

> <PUBCHEM_SHAPE_VOLUME>
140.6

> <PUBCHEM_COORDINATE_TYPE>
2
5
10