10949164
  -OEChem-05072106003D

 49 48  0     1  0  0  0  0  0999 V2000
    0.2700   -0.7176   -1.6469 O   0  0  0  0  0  0  0  0  0  0  0  0
    0.9154    1.1911    1.4149 O   0  0  0  0  0  0  0  0  0  0  0  0
   -0.0487   -1.5622    1.8443 O   0  0  0  0  0  0  0  0  0  0  0  0
    2.9271    0.9970   -0.5301 O   0  0  0  0  0  0  0  0  0  0  0  0
   -2.3015   -0.1946    1.8719 O   0  0  0  0  0  0  0  0  0  0  0  0
   -3.9150    0.4444   -0.1503 O   0  0  0  0  0  0  0  0  0  0  0  0
    1.5082   -2.6665   -1.5743 O   0  0  0  0  0  0  0  0  0  0  0  0
   -0.2196    3.2030    1.3891 O   0  0  0  0  0  0  0  0  0  0  0  0
    0.8238   -3.5510    1.0568 O   0  0  0  0  0  0  0  0  0  0  0  0
    3.9990    2.3936   -2.0259 O   0  0  0  0  0  0  0  0  0  0  0  0
   -4.5185    0.5575   -2.3775 O   0  0  0  0  0  0  0  0  0  0  0  0
    0.4743   -0.5246   -0.2502 C   0  0  1  0  0  0  0  0  0  0  0  0
    0.5938    0.9831    0.0401 C   0  0  2  0  0  0  0  0  0  0  0  0
   -0.5907   -1.2789    0.5603 C   0  0  2  0  0  0  0  0  0  0  0  0
    1.6863    1.6400   -0.8041 C   0  0  0  0  0  0  0  0  0  0  0  0
   -1.9154   -0.5432    0.7552 C   0  0  0  0  0  0  0  0  0  0  0  0
   -2.7202   -0.2292   -0.4915 C   0  0  0  0  0  0  0  0  0  0  0  0
    0.8461   -1.8354   -2.1808 C   0  0  0  0  0  0  0  0  0  0  0  0
    0.4419    2.3483    1.9628 C   0  0  0  0  0  0  0  0  0  0  0  0
    0.6394   -2.7387    1.9531 C   0  0  0  0  0  0  0  0  0  0  0  0
    0.5489   -1.9075   -3.6480 C   0  0  0  0  0  0  0  0  0  0  0  0
    4.0076    1.4775   -1.2148 C   0  0  0  0  0  0  0  0  0  0  0  0
    0.8533    2.4310    3.4015 C   0  0  0  0  0  0  0  0  0  0  0  0
    1.1500   -2.9026    3.3525 C   0  0  0  0  0  0  0  0  0  0  0  0
    5.2359    0.7111   -0.8273 C   0  0  0  0  0  0  0  0  0  0  0  0
   -4.7349    0.7856   -1.1950 C   0  0  0  0  0  0  0  0  0  0  0  0
   -5.9565    1.4889   -0.6859 C   0  0  0  0  0  0  0  0  0  0  0  0
    1.4482   -0.9498    0.0308 H   0  0  0  0  0  0  0  0  0  0  0  0
   -0.3532    1.4690   -0.2208 H   0  0  0  0  0  0  0  0  0  0  0  0
   -0.8703   -2.2143    0.0572 H   0  0  0  0  0  0  0  0  0  0  0  0
    1.4546    1.5587   -1.8722 H   0  0  0  0  0  0  0  0  0  0  0  0
    1.7784    2.7006   -0.5423 H   0  0  0  0  0  0  0  0  0  0  0  0
   -2.1269    0.4027   -1.1570 H   0  0  0  0  0  0  0  0  0  0  0  0
   -2.9604   -1.1775   -0.9844 H   0  0  0  0  0  0  0  0  0  0  0  0
   -0.5312   -1.9641   -3.8042 H   0  0  0  0  0  0  0  0  0  0  0  0
    1.0096   -2.8062   -4.0679 H   0  0  0  0  0  0  0  0  0  0  0  0
    0.9663   -1.0329   -4.1533 H   0  0  0  0  0  0  0  0  0  0  0  0
    0.4391    1.5836    3.9538 H   0  0  0  0  0  0  0  0  0  0  0  0
    0.4638    3.3552    3.8379 H   0  0  0  0  0  0  0  0  0  0  0  0
    1.9436    2.4429    3.4746 H   0  0  0  0  0  0  0  0  0  0  0  0
    1.8237   -2.0780    3.5991 H   0  0  0  0  0  0  0  0  0  0  0  0
    1.7059   -3.8415    3.4284 H   0  0  0  0  0  0  0  0  0  0  0  0
    0.3105   -2.9364    4.0512 H   0  0  0  0  0  0  0  0  0  0  0  0
    5.4283    0.8358    0.2412 H   0  0  0  0  0  0  0  0  0  0  0  0
    6.0949    1.0964   -1.3841 H   0  0  0  0  0  0  0  0  0  0  0  0
    5.1061   -0.3455   -1.0747 H   0  0  0  0  0  0  0  0  0  0  0  0
   -6.5136    0.8265   -0.0188 H   0  0  0  0  0  0  0  0  0  0  0  0
   -6.5995    1.7562   -1.5294 H   0  0  0  0  0  0  0  0  0  0  0  0
   -5.6660    2.4047   -0.1651 H   0  0  0  0  0  0  0  0  0  0  0  0
  1 12  1  0  0  0  0
  1 18  1  0  0  0  0
  2 13  1  0  0  0  0
  2 19  1  0  0  0  0
  3 14  1  0  0  0  0
  3 20  1  0  0  0  0
  4 15  1  0  0  0  0
  4 22  1  0  0  0  0
  5 16  2  0  0  0  0
  6 17  1  0  0  0  0
  6 26  1  0  0  0  0
  7 18  2  0  0  0  0
  8 19  2  0  0  0  0
  9 20  2  0  0  0  0
 10 22  2  0  0  0  0
 11 26  2  0  0  0  0
 12 13  1  0  0  0  0
 12 14  1  0  0  0  0
 12 28  1  0  0  0  0
 13 15  1  0  0  0  0
 13 29  1  0  0  0  0
 14 16  1  0  0  0  0
 14 30  1  0  0  0  0
 15 31  1  0  0  0  0
 15 32  1  0  0  0  0
 16 17  1  0  0  0  0
 17 33  1  0  0  0  0
 17 34  1  0  0  0  0
 18 21  1  0  0  0  0
 19 23  1  0  0  0  0
 20 24  1  0  0  0  0
 21 35  1  0  0  0  0
 21 36  1  0  0  0  0
 21 37  1  0  0  0  0
 22 25  1  0  0  0  0
 23 38  1  0  0  0  0
 23 39  1  0  0  0  0
 23 40  1  0  0  0  0
 24 41  1  0  0  0  0
 24 42  1  0  0  0  0
 24 43  1  0  0  0  0
 25 44  1  0  0  0  0
 25 45  1  0  0  0  0
 25 46  1  0  0  0  0
 26 27  1  0  0  0  0
 27 47  1  0  0  0  0
 27 48  1  0  0  0  0
 27 49  1  0  0  0  0
M  END
> <PUBCHEM_COMPOUND_CID>
10949164

> <PUBCHEM_CONFORMER_RMSD>
1.2

> <PUBCHEM_CONFORMER_DIVERSEORDER>
1
44
41
48
30
52
15
34
32
8
13
31
6
28
50
24
47
25
42
18
40
21
7
33
35
51
23
5
14
20
27
11
36
39
46
9
17
38
49
43
29
26
12
2
37
19
22
3
45
4
16
10

> <PUBCHEM_MMFF94_PARTIAL_CHARGES>
27
1 -0.43
10 -0.57
11 -0.57
12 0.28
13 0.28
14 0.34
15 0.28
16 0.45
17 0.34
18 0.66
19 0.66
2 -0.43
20 0.66
21 0.06
22 0.66
23 0.06
24 0.06
25 0.06
26 0.66
27 0.06
3 -0.43
4 -0.43
5 -0.57
6 -0.43
7 -0.57
8 -0.57
9 -0.57

> <PUBCHEM_EFFECTIVE_ROTOR_COUNT>
15

> <PUBCHEM_PHARMACOPHORE_FEATURES>
6
1 10 acceptor
1 11 acceptor
1 5 acceptor
1 7 acceptor
1 8 acceptor
1 9 acceptor

> <PUBCHEM_HEAVY_ATOM_COUNT>
27

> <PUBCHEM_ATOM_DEF_STEREO_COUNT>
3

> <PUBCHEM_ATOM_UDEF_STEREO_COUNT>
0

> <PUBCHEM_BOND_DEF_STEREO_COUNT>
0

> <PUBCHEM_BOND_UDEF_STEREO_COUNT>
0

> <PUBCHEM_ISOTOPIC_ATOM_COUNT>
0

> <PUBCHEM_COMPONENT_COUNT>
1

> <PUBCHEM_CACTVS_TAUTO_COUNT>
3

> <PUBCHEM_CONFORMER_ID>
00A7122C00000001

> <PUBCHEM_MMFF94_ENERGY>
38.2093

> <PUBCHEM_FEATURE_SELFOVERLAP>
30.455

> <PUBCHEM_SHAPE_FINGERPRINT>
10382601 240 15358242823694594121
10930396 42 17487872632986561600
13134695 92 17836322070647404089
15163728 17 17749691634988233997
17980427 23 17411851273312582955
20600515 1 17041171568892735469
21927370 108 17323234818800574531
23419403 2 17903117457479331607
23558518 356 17909027281408167712
3060560 45 17631997733045232093

> <PUBCHEM_SHAPE_MULTIPOLES>
491.08
7.68
3.75
3.66
7.96
0.37
-2.53
3.9
7.82
-2.12
-1.14
-1.76
-1.99
-0.64

> <PUBCHEM_SHAPE_SELFOVERLAP>
971.499

> <PUBCHEM_SHAPE_VOLUME>
288.6

> <PUBCHEM_COORDINATE_TYPE>
2
5
10