11010170
  -OEChem-05072106003D

 28 27  0     1  0  0  0  0  0999 V2000
    3.7820    0.3677   -0.1795 P   0  0  0  0  0  0  0  0  0  0  0  0
    0.0061   -1.5624   -0.8399 O   0  0  0  0  0  0  0  0  0  0  0  0
    2.2311    0.0637   -0.5165 O   0  0  0  0  0  0  0  0  0  0  0  0
   -2.5177   -2.1530   -0.0945 O   0  0  0  0  0  0  0  0  0  0  0  0
   -3.5273    0.0142   -1.2631 O   0  0  0  0  0  0  0  0  0  0  0  0
   -3.8468    2.4681   -0.2547 O   0  0  0  0  0  0  0  0  0  0  0  0
    4.2145   -0.8572    0.7836 O   0  0  0  0  0  0  0  0  0  0  0  0
    3.6857    1.6227    0.8357 O   0  0  0  0  0  0  0  0  0  0  0  0
    4.6623    0.5858   -1.3751 O   0  0  0  0  0  0  0  0  0  0  0  0
   -1.0631   -0.6869    1.1446 C   0  0  0  0  0  0  0  0  0  0  0  0
   -0.0614   -0.4193    0.0106 C   0  0  1  0  0  0  0  0  0  0  0  0
   -2.4989   -0.9675    0.6843 C   0  0  1  0  0  0  0  0  0  0  0  0
    1.3352   -0.1538    0.5684 C   0  0  0  0  0  0  0  0  0  0  0  0
   -3.1284    0.1737   -0.1089 C   0  0  0  0  0  0  0  0  0  0  0  0
   -3.2733    1.5043    0.6049 C   0  0  0  0  0  0  0  0  0  0  0  0
   -0.7200   -1.5708    1.6994 H   0  0  0  0  0  0  0  0  0  0  0  0
   -1.0556    0.1574    1.8432 H   0  0  0  0  0  0  0  0  0  0  0  0
   -0.3726    0.4306   -0.6069 H   0  0  0  0  0  0  0  0  0  0  0  0
   -3.1292   -1.1460    1.5632 H   0  0  0  0  0  0  0  0  0  0  0  0
    1.6853   -1.0216    1.1371 H   0  0  0  0  0  0  0  0  0  0  0  0
    1.3246    0.7253    1.2199 H   0  0  0  0  0  0  0  0  0  0  0  0
   -0.8541   -1.6516   -1.2836 H   0  0  0  0  0  0  0  0  0  0  0  0
   -2.2976    1.8710    0.9313 H   0  0  0  0  0  0  0  0  0  0  0  0
   -3.9292    1.3749    1.4697 H   0  0  0  0  0  0  0  0  0  0  0  0
   -3.4487   -2.3819   -0.2577 H   0  0  0  0  0  0  0  0  0  0  0  0
   -3.2149    2.6292   -0.9762 H   0  0  0  0  0  0  0  0  0  0  0  0
    5.1486   -0.9245    1.0753 H   0  0  0  0  0  0  0  0  0  0  0  0
    4.5127    2.0647    1.1239 H   0  0  0  0  0  0  0  0  0  0  0  0
  1  3  1  0  0  0  0
  1  7  1  0  0  0  0
  1  8  1  0  0  0  0
  1  9  2  0  0  0  0
  2 11  1  0  0  0  0
  2 22  1  0  0  0  0
  3 13  1  0  0  0  0
  4 12  1  0  0  0  0
  4 25  1  0  0  0  0
  5 14  2  0  0  0  0
  6 15  1  0  0  0  0
  6 26  1  0  0  0  0
  7 27  1  0  0  0  0
  8 28  1  0  0  0  0
 10 11  1  0  0  0  0
 10 12  1  0  0  0  0
 10 16  1  0  0  0  0
 10 17  1  0  0  0  0
 11 13  1  0  0  0  0
 11 18  1  0  0  0  0
 12 14  1  0  0  0  0
 12 19  1  0  0  0  0
 13 20  1  0  0  0  0
 13 21  1  0  0  0  0
 14 15  1  0  0  0  0
 15 23  1  0  0  0  0
 15 24  1  0  0  0  0
M  END
> <PUBCHEM_COMPOUND_CID>
11010170

> <PUBCHEM_CONFORMER_RMSD>
0.8

> <PUBCHEM_CONFORMER_DIVERSEORDER>
1
105
9
168
93
83
36
178
122
51
130
71
2
155
15
121
150
7
170
137
3
100
132
129
22
156
88
4
23
90
99
40
135
61
126
154
180
27
111
114
142
157
5
153
70
85
138
108
56
133
118
95
124
21
35
146
96
32
104
84
106
14
139
143
172
102
161
151
55
148
16
26
107
149
72
152
20
89
159
29
19
131
69
171
120
11
165
6
160
167
91
141
60
12
117
75
31
158
144
42
166
94
80
59
179
73
49
115
127
169
64
50
110
78
177
145
109
28
65
87
174
37
44
162
81
98
39
24
116
82
18
77
17
119
76
123
163
147
47
128
54
63
79
13
41
10
52
53
86
38
62
57
173
8
48
34
67
176
92
43
113
112
97
136
58
68
33
101
140
175
164
103
134
46
45
66
74
30
25
125

> <PUBCHEM_MMFF94_PARTIAL_CHARGES>
19
1 1.51
11 0.28
12 0.34
13 0.28
14 0.45
15 0.34
2 -0.68
22 0.4
25 0.4
26 0.4
27 0.5
28 0.5
3 -0.55
4 -0.68
5 -0.57
6 -0.68
7 -0.77
8 -0.77
9 -0.7

> <PUBCHEM_EFFECTIVE_ROTOR_COUNT>
7

> <PUBCHEM_PHARMACOPHORE_FEATURES>
11
1 2 acceptor
1 2 donor
1 4 acceptor
1 4 donor
1 5 acceptor
1 6 acceptor
1 6 donor
1 7 acceptor
1 8 acceptor
1 9 acceptor
4 1 7 8 9 anion

> <PUBCHEM_HEAVY_ATOM_COUNT>
15

> <PUBCHEM_ATOM_DEF_STEREO_COUNT>
2

> <PUBCHEM_ATOM_UDEF_STEREO_COUNT>
0

> <PUBCHEM_BOND_DEF_STEREO_COUNT>
0

> <PUBCHEM_BOND_UDEF_STEREO_COUNT>
0

> <PUBCHEM_ISOTOPIC_ATOM_COUNT>
0

> <PUBCHEM_COMPONENT_COUNT>
1

> <PUBCHEM_CACTVS_TAUTO_COUNT>
6

> <PUBCHEM_CONFORMER_ID>
00A8007A00000001

> <PUBCHEM_MMFF94_ENERGY>
-17.427

> <PUBCHEM_FEATURE_SELFOVERLAP>
55.891

> <PUBCHEM_SHAPE_FINGERPRINT>
10014705 185 17675918815906522751
10680689 15 18338527446486275146
13675066 3 15213021531231779182
14004511 7 18040997323682470098
14123255 352 18261112924618987941
14123260 362 18260556614568779629
14251764 38 17988916795249797584
14252887 29 14056721240794584856
15239154 128 18186805798599537268
15239191 94 10735880560325439884
1741750 31 18340491058663555329
17834072 32 18338517430939467601
18186145 218 17917158281401106202
19026448 5 18040715891977400090
1986462 14 18336549407771946746
200 152 14764350414081034306
20112054 13 15357693076697299119
20112054 60 18341332279300151315
20300324 65 18271800242381601301
20645477 56 18340497698688269531
20645477 70 16630257943686685334
20671657 53 13326561952355872539
20711983 171 18260834799790185750
2306618 200 18131360730114419859
23402539 116 18060128813474460660
23402655 69 18261116279431044452
23557571 272 18339940301937865831
23559900 14 17846786179007480790
32948 21 18339652157319932788
4028521 119 18342173315733780041
633830 44 17530970176748068170
6430166 295 18410008797736463560

> <PUBCHEM_SHAPE_MULTIPOLES>
265.59
9.26
1.82
1.08
6.86
0.44
-0.09
3.71
-1.14
-1.84
0.04
0.23
-0.02
-0.05

> <PUBCHEM_SHAPE_SELFOVERLAP>
494.797

> <PUBCHEM_SHAPE_VOLUME>
166

> <PUBCHEM_COORDINATE_TYPE>
2
5
10