11782294
  -OEChem-05072106003D

 42 44  0     1  0  0  0  0  0999 V2000
   -0.6086   -0.3668    0.6745 O   0  0  0  0  0  0  0  0  0  0  0  0
    0.7021    0.4963   -1.6501 O   0  0  0  0  0  0  0  0  0  0  0  0
   -2.0546    0.9240   -0.7044 O   0  0  0  0  0  0  0  0  0  0  0  0
    2.0974   -0.8314   -0.2272 O   0  0  0  0  0  0  0  0  0  0  0  0
   -1.9708   -2.6181   -0.0416 O   0  0  0  0  0  0  0  0  0  0  0  0
    2.1233    2.7581    0.0080 O   0  0  0  0  0  0  0  0  0  0  0  0
   -4.7448   -1.2905    0.0205 O   0  0  0  0  0  0  0  0  0  0  0  0
    4.8621    1.4163    0.1434 O   0  0  0  0  0  0  0  0  0  0  0  0
   -4.9797    1.5077    1.3984 O   0  0  0  0  0  0  0  0  0  0  0  0
    3.7975   -2.8584    0.7243 O   0  0  0  0  0  0  0  0  0  0  0  0
   -1.3193   -0.3097   -0.5712 C   0  0  2  0  0  0  0  0  0  0  0  0
    1.4139    0.4304   -0.4095 C   0  0  1  0  0  0  0  0  0  0  0  0
   -2.4060   -1.3819   -0.5723 C   0  0  2  0  0  0  0  0  0  0  0  0
    2.5258    1.4837   -0.4572 C   0  0  2  0  0  0  0  0  0  0  0  0
    0.4284    0.6158    0.7485 C   0  0  0  0  0  0  0  0  0  0  0  0
   -0.3424   -0.4761   -1.7292 C   0  0  0  0  0  0  0  0  0  0  0  0
   -3.4723   -0.7252    0.2776 C   0  0  1  0  0  0  0  0  0  0  0  0
    3.5844    0.8837    0.4379 C   0  0  1  0  0  0  0  0  0  0  0  0
   -3.3911    0.7202   -0.2026 C   0  0  1  0  0  0  0  0  0  0  0  0
    3.4829   -0.5844    0.0624 C   0  0  1  0  0  0  0  0  0  0  0  0
   -3.6694    1.7252    0.9020 C   0  0  0  0  0  0  0  0  0  0  0  0
    3.9412   -1.5189    1.1678 C   0  0  0  0  0  0  0  0  0  0  0  0
   -2.7946   -1.5645   -1.5821 H   0  0  0  0  0  0  0  0  0  0  0  0
    2.9124    1.6143   -1.4762 H   0  0  0  0  0  0  0  0  0  0  0  0
    0.9234    0.4811    1.7153 H   0  0  0  0  0  0  0  0  0  0  0  0
   -0.0403    1.6058    0.7376 H   0  0  0  0  0  0  0  0  0  0  0  0
    0.1100   -1.4743   -1.7352 H   0  0  0  0  0  0  0  0  0  0  0  0
   -0.8472   -0.3239   -2.6888 H   0  0  0  0  0  0  0  0  0  0  0  0
   -3.2544   -0.8378    1.3463 H   0  0  0  0  0  0  0  0  0  0  0  0
    3.3661    1.0635    1.4972 H   0  0  0  0  0  0  0  0  0  0  0  0
   -4.0915    0.8882   -1.0303 H   0  0  0  0  0  0  0  0  0  0  0  0
    4.0459   -0.8028   -0.8540 H   0  0  0  0  0  0  0  0  0  0  0  0
   -3.5922    2.7481    0.5185 H   0  0  0  0  0  0  0  0  0  0  0  0
   -2.9489    1.6241    1.7211 H   0  0  0  0  0  0  0  0  0  0  0  0
    3.3335   -1.4014    2.0711 H   0  0  0  0  0  0  0  0  0  0  0  0
    4.9911   -1.3484    1.4231 H   0  0  0  0  0  0  0  0  0  0  0  0
   -1.5841   -2.4482    0.8343 H   0  0  0  0  0  0  0  0  0  0  0  0
    1.4077    3.0664   -0.5739 H   0  0  0  0  0  0  0  0  0  0  0  0
   -5.4001   -0.7672    0.5128 H   0  0  0  0  0  0  0  0  0  0  0  0
    4.8199    2.3758    0.2963 H   0  0  0  0  0  0  0  0  0  0  0  0
   -5.1319    2.1636    2.0999 H   0  0  0  0  0  0  0  0  0  0  0  0
    2.8618   -2.9926    0.4956 H   0  0  0  0  0  0  0  0  0  0  0  0
  1 11  1  0  0  0  0
  1 15  1  0  0  0  0
  2 12  1  0  0  0  0
  2 16  1  0  0  0  0
  3 11  1  0  0  0  0
  3 19  1  0  0  0  0
  4 12  1  0  0  0  0
  4 20  1  0  0  0  0
  5 13  1  0  0  0  0
  5 37  1  0  0  0  0
  6 14  1  0  0  0  0
  6 38  1  0  0  0  0
  7 17  1  0  0  0  0
  7 39  1  0  0  0  0
  8 18  1  0  0  0  0
  8 40  1  0  0  0  0
  9 21  1  0  0  0  0
  9 41  1  0  0  0  0
 10 22  1  0  0  0  0
 10 42  1  0  0  0  0
 11 13  1  0  0  0  0
 11 16  1  0  0  0  0
 12 14  1  0  0  0  0
 12 15  1  0  0  0  0
 13 17  1  0  0  0  0
 13 23  1  0  0  0  0
 14 18  1  0  0  0  0
 14 24  1  0  0  0  0
 15 25  1  0  0  0  0
 15 26  1  0  0  0  0
 16 27  1  0  0  0  0
 16 28  1  0  0  0  0
 17 19  1  0  0  0  0
 17 29  1  0  0  0  0
 18 20  1  0  0  0  0
 18 30  1  0  0  0  0
 19 21  1  0  0  0  0
 19 31  1  0  0  0  0
 20 22  1  0  0  0  0
 20 32  1  0  0  0  0
 21 33  1  0  0  0  0
 21 34  1  0  0  0  0
 22 35  1  0  0  0  0
 22 36  1  0  0  0  0
M  END
> <PUBCHEM_COMPOUND_CID>
11782294

> <PUBCHEM_CONFORMER_RMSD>
0.8

> <PUBCHEM_CONFORMER_DIVERSEORDER>
2
4
6
7
5
9
10
11
3
8
1

> <PUBCHEM_MMFF94_PARTIAL_CHARGES>
28
1 -0.56
10 -0.68
11 0.56
12 0.56
13 0.28
14 0.28
15 0.28
16 0.28
17 0.28
18 0.28
19 0.28
2 -0.56
20 0.28
21 0.28
22 0.28
3 -0.56
37 0.4
38 0.4
39 0.4
4 -0.56
40 0.4
41 0.4
42 0.4
5 -0.68
6 -0.68
7 -0.68
8 -0.68
9 -0.68

> <PUBCHEM_EFFECTIVE_ROTOR_COUNT>
4.4

> <PUBCHEM_PHARMACOPHORE_FEATURES>
19
1 1 acceptor
1 10 acceptor
1 10 donor
1 2 acceptor
1 3 acceptor
1 4 acceptor
1 5 acceptor
1 5 donor
1 6 acceptor
1 6 donor
1 7 acceptor
1 7 donor
1 8 acceptor
1 8 donor
1 9 acceptor
1 9 donor
5 3 11 13 17 19 rings
5 4 12 14 18 20 rings
6 1 2 11 12 15 16 rings

> <PUBCHEM_HEAVY_ATOM_COUNT>
22

> <PUBCHEM_ATOM_DEF_STEREO_COUNT>
8

> <PUBCHEM_ATOM_UDEF_STEREO_COUNT>
0

> <PUBCHEM_BOND_DEF_STEREO_COUNT>
0

> <PUBCHEM_BOND_UDEF_STEREO_COUNT>
0

> <PUBCHEM_ISOTOPIC_ATOM_COUNT>
0

> <PUBCHEM_COMPONENT_COUNT>
1

> <PUBCHEM_CACTVS_TAUTO_COUNT>
1

> <PUBCHEM_CONFORMER_ID>
00B3C89600000002

> <PUBCHEM_MMFF94_ENERGY>
73.2338

> <PUBCHEM_FEATURE_SELFOVERLAP>
96.547

> <PUBCHEM_SHAPE_FINGERPRINT>
10062212 137 18130497570394530423
10366900 7 18197210575579754306
10616163 171 18266458900387666126
11405975 8 18411418384396195203
11543360 7 9223224152625248969
11552529 35 18196649807691629279
12107183 9 18123470471037311723
12236239 1 18130788967141255760
12251169 10 18338796822429057509
12403260 363 18272926138088318351
12553582 1 18119234070596562538
12633257 1 18339642230964767679
12670546 177 10231755565716927953
12670546 56 18412820300481836025
12892183 10 18411136960906331345
13167823 11 18411980282130445706
13224815 77 13118001097588561881
13533116 47 18336261327621045995
13583140 156 18339910619160498373
13675066 3 17603868871052614885
13760787 19 18412546543788183710
14178342 30 18123449821409740642
14252887 29 17313100856750690980
14289901 80 18266739258440024339
14341114 176 18411142467028043969
14420673 8 18122065291136215146
14790565 3 18191310588382060524
14866123 147 17257925997400973106
15442244 35 18410571751990126776
15848702 151 18114175328553684014
16945 1 18338231557504087972
17349148 13 17704070677053351397
17492 89 18410855481630301066
17804303 29 18334577901855934830
1813 80 16805325474573683510
18186145 218 18409730634037113332
19078846 21 18201719544206577128
19422 9 18408885152740146755
20233049 118 17418095446732745168
20281475 54 18186798076306316022
20645477 70 18187351130481358206
20715895 44 17912652302626449153
20871999 31 9007052436401917441
21033648 29 16702295759025636202
21065198 48 18412261748432546435
21065199 12 18408038524228073832
21421861 104 18115019702672072952
21501502 16 18340204193107275189
2255824 54 18115589399977054300
23402539 116 18200869678090639847
23493267 7 17988655119992263902
23557571 272 16702028603638928989
23559900 14 17845384262579098374
296302 2 17275100652351938832
312423 11 18336271223061795455
3286 77 18186795881356501142
3633792 109 18189033375214502439
4214541 1 18411981381736804665
474 4 17898573334925428068
5104073 3 18411417306348926395
58807428 26 18337963268747298067
7097593 13 18409726274824564966
8509985 295 18201155455949711473
9709674 26 18411141376133445766

> <PUBCHEM_SHAPE_MULTIPOLES>
394.06
9.32
2.36
1.17
1.24
0.46
-0.2
-0.3
3.26
-0.84
0.48
0.19
-0.02
-1.36

> <PUBCHEM_SHAPE_SELFOVERLAP>
834.169

> <PUBCHEM_SHAPE_VOLUME>
219.8

> <PUBCHEM_COORDINATE_TYPE>
2
5
10