121009734
  -OEChem-05072106003D

 37 37  0     1  0  0  0  0  0999 V2000
   -3.4474    1.9825   -1.1835 Cl  0  0  0  0  0  0  0  0  0  0  0  0
   -6.0843    0.1633   -0.9818 Cl  0  0  0  0  0  0  0  0  0  0  0  0
    4.0365   -1.3562    1.3153 O   0  0  0  0  0  0  0  0  0  0  0  0
    2.1446    0.3347    2.5559 O   0  0  0  0  0  0  0  0  0  0  0  0
    3.2034   -2.1830   -1.4225 O   0  0  0  0  0  0  0  0  0  0  0  0
    4.6503    0.1705   -2.5298 O   0  0  0  0  0  0  0  0  0  0  0  0
    0.9505    3.3203    0.7485 O   0  0  0  0  0  0  0  0  0  0  0  0
    0.1132    0.2266    0.5669 N   0  0  0  0  0  0  0  0  0  0  0  0
   -1.0197    0.6884    0.0105 N   0  0  0  0  0  0  0  0  0  0  0  0
    2.8831   -0.9035    0.6041 C   0  0  1  0  0  0  0  0  0  0  0  0
    2.4485    0.4560    1.1742 C   0  0  1  0  0  0  0  0  0  0  0  0
    3.2184   -0.8539   -0.8976 C   0  0  1  0  0  0  0  0  0  0  0  0
    1.1808    0.9638    0.4827 C   0  0  0  0  0  0  0  0  0  0  0  0
    4.5917   -0.2411   -1.1676 C   0  0  0  0  0  0  0  0  0  0  0  0
    1.2623    2.3182   -0.1968 C   0  0  0  0  0  0  0  0  0  0  0  0
   -2.2016   -0.0681    0.0729 C   0  0  0  0  0  0  0  0  0  0  0  0
   -3.4052    0.4119   -0.4433 C   0  0  0  0  0  0  0  0  0  0  0  0
   -2.1516   -1.3279    0.6697 C   0  0  0  0  0  0  0  0  0  0  0  0
   -4.5590   -0.3678   -0.3626 C   0  0  0  0  0  0  0  0  0  0  0  0
   -3.3054   -2.1075    0.7504 C   0  0  0  0  0  0  0  0  0  0  0  0
   -4.5091   -1.6274    0.2343 C   0  0  0  0  0  0  0  0  0  0  0  0
    2.1012   -1.6504    0.7903 H   0  0  0  0  0  0  0  0  0  0  0  0
    3.2568    1.1885    1.0884 H   0  0  0  0  0  0  0  0  0  0  0  0
    2.4405   -0.3136   -1.4474 H   0  0  0  0  0  0  0  0  0  0  0  0
    5.3964   -0.9648   -1.0019 H   0  0  0  0  0  0  0  0  0  0  0  0
    4.7675    0.6487   -0.5573 H   0  0  0  0  0  0  0  0  0  0  0  0
    0.5979    2.3922   -1.0601 H   0  0  0  0  0  0  0  0  0  0  0  0
    2.2850    2.4763   -0.5541 H   0  0  0  0  0  0  0  0  0  0  0  0
    4.2732   -2.2302    0.9603 H   0  0  0  0  0  0  0  0  0  0  0  0
    1.9765    1.2290    2.8992 H   0  0  0  0  0  0  0  0  0  0  0  0
    3.4252   -2.1256   -2.3677 H   0  0  0  0  0  0  0  0  0  0  0  0
   -1.0916    1.6232   -0.3700 H   0  0  0  0  0  0  0  0  0  0  0  0
    5.5322    0.5539   -2.6741 H   0  0  0  0  0  0  0  0  0  0  0  0
    1.1145    4.1787    0.3223 H   0  0  0  0  0  0  0  0  0  0  0  0
   -1.2351   -1.7408    1.0825 H   0  0  0  0  0  0  0  0  0  0  0  0
   -3.2669   -3.0887    1.2147 H   0  0  0  0  0  0  0  0  0  0  0  0
   -5.3981   -2.2490    0.3059 H   0  0  0  0  0  0  0  0  0  0  0  0
  1 17  1  0  0  0  0
  2 19  1  0  0  0  0
  3 10  1  0  0  0  0
  3 29  1  0  0  0  0
  4 11  1  0  0  0  0
  4 30  1  0  0  0  0
  5 12  1  0  0  0  0
  5 31  1  0  0  0  0
  6 14  1  0  0  0  0
  6 33  1  0  0  0  0
  7 15  1  0  0  0  0
  7 34  1  0  0  0  0
  8  9  1  0  0  0  0
  8 13  2  0  0  0  0
  9 16  1  0  0  0  0
  9 32  1  0  0  0  0
 10 11  1  0  0  0  0
 10 12  1  0  0  0  0
 10 22  1  0  0  0  0
 11 13  1  0  0  0  0
 11 23  1  0  0  0  0
 12 14  1  0  0  0  0
 12 24  1  0  0  0  0
 13 15  1  0  0  0  0
 14 25  1  0  0  0  0
 14 26  1  0  0  0  0
 15 27  1  0  0  0  0
 15 28  1  0  0  0  0
 16 17  2  0  0  0  0
 16 18  1  0  0  0  0
 17 19  1  0  0  0  0
 18 20  2  0  0  0  0
 18 35  1  0  0  0  0
 19 21  2  0  0  0  0
 20 21  1  0  0  0  0
 20 36  1  0  0  0  0
 21 37  1  0  0  0  0
M  END
> <PUBCHEM_COMPOUND_CID>
121009734

> <PUBCHEM_CONFORMER_RMSD>
0.8

> <PUBCHEM_CONFORMER_DIVERSEORDER>
1
30
86
133
167
98
143
67
48
113
81
142
104
131
29
96
130
43
87
60
78
164
85
22
149
162
27
145
151
160
138
37
137
103
8
94
26
70
119
128
107
90
127
139
124
28
114
65
173
158
95
150
154
165
23
156
53
120
175
62
25
126
64
49
88
135
89
80
76
148
55
101
112
166
18
141
77
152
17
31
57
125
97
123
34
15
174
24
136
73
111
99
129
100
163
58
102
105
21
75
92
118
72
4
16
54
108
134
170
168
172
52
91
6
83
176
161
153
79
59
122
106
84
11
93
51
69
147
63
144
7
56
68
82
61
71
35
109
117
45
121
32
38
46
157
66
110
33
159
9
74
14
155
140
132
169
19
20
115
2
146
41
171
44
12
5
10
116
40
42
36
47
3
13
39
50

> <PUBCHEM_MMFF94_PARTIAL_CHARGES>
30
1 -0.18
10 0.28
11 0.34
12 0.28
13 0.33
14 0.28
15 0.34
16 0.1
17 0.18
18 -0.15
19 0.18
2 -0.18
20 -0.15
21 -0.15
29 0.4
3 -0.68
30 0.4
31 0.4
32 0.4
33 0.4
34 0.4
35 0.15
36 0.15
37 0.15
4 -0.68
5 -0.68
6 -0.68
7 -0.68
8 -0.49
9 -0.46

> <PUBCHEM_EFFECTIVE_ROTOR_COUNT>
7

> <PUBCHEM_PHARMACOPHORE_FEATURES>
13
1 3 acceptor
1 3 donor
1 4 acceptor
1 4 donor
1 5 acceptor
1 5 donor
1 6 acceptor
1 6 donor
1 7 acceptor
1 7 donor
1 8 acceptor
1 9 donor
6 16 17 18 19 20 21 rings

> <PUBCHEM_HEAVY_ATOM_COUNT>
21

> <PUBCHEM_ATOM_DEF_STEREO_COUNT>
3

> <PUBCHEM_ATOM_UDEF_STEREO_COUNT>
0

> <PUBCHEM_BOND_DEF_STEREO_COUNT>
1

> <PUBCHEM_BOND_UDEF_STEREO_COUNT>
0

> <PUBCHEM_ISOTOPIC_ATOM_COUNT>
0

> <PUBCHEM_COMPONENT_COUNT>
1

> <PUBCHEM_CACTVS_TAUTO_COUNT>
2

> <PUBCHEM_CONFORMER_ID>
0736764600000001

> <PUBCHEM_MMFF94_ENERGY>
58.2875

> <PUBCHEM_FEATURE_SELFOVERLAP>
65.992

> <PUBCHEM_SHAPE_FINGERPRINT>
11128504 68 16443065006362299087
11954058 11 15123522393033011316
12236239 1 16588022394833631999
12553582 1 18339938042621434090
12670546 177 18114472222679064300
12707595 3 18411701010461064250
12892183 10 12535348931496760126
13533116 47 16343980338592935807
13583140 156 16629386138271579539
13911852 28 15481288002028271262
14251757 5 18263370204779385357
14251764 30 15553347821207359764
14252887 29 17917987274592949458
14366163 111 16515405170355968238
14386348 63 18343863316212528707
14866123 147 17551237259623378635
15635459 17 18202284667076145526
17349148 13 12967123917755858433
17804303 29 18333728035834890497
1813 80 16128394652886469484
18222031 100 17989489614915809646
20645477 70 18270115854617739981
20871999 31 18334867090583106028
21033650 10 17532666628573663780
2215653 11 18343016684296759583
22224240 67 17059754712205576762
23557571 272 18267575820092353736
23559900 14 18339076103142021521
2838139 119 15502949635632240182
3004659 81 17968091968042260234
314173 41 18410294713577450482
3737641 26 15767837225117586302
5104073 3 18116142437414982449
543368 44 16805613606949968223
6823239 73 18410853304344840456
7364860 26 18197780109918825480
960060 61 18410578374787687974
9709674 26 18191299584411311467

> <PUBCHEM_SHAPE_MULTIPOLES>
396.6
11.65
2.4
1.66
5.09
1.1
0.14
-3.07
4.96
0.32
-0.26
-2.58
0
1.13

> <PUBCHEM_SHAPE_SELFOVERLAP>
788.825

> <PUBCHEM_SHAPE_VOLUME>
235.4

> <PUBCHEM_COORDINATE_TYPE>
2
5
10