129635401
  -OEChem-05072106003D

 30 31  0     1  0  0  0  0  0999 V2000
   -0.0202   -0.0371   -1.5806 O   0  0  0  0  0  0  0  0  0  0  0  0
    0.6253    2.2337   -1.5005 O   0  0  0  0  0  0  0  0  0  0  0  0
   -0.4222    1.6776    1.5087 O   0  0  0  0  0  0  0  0  0  0  0  0
    1.4066   -2.3506   -1.0281 O   0  0  0  0  0  0  0  0  0  0  0  0
    2.2632    1.6558    0.7331 O   0  0  0  0  0  0  0  0  0  0  0  0
    2.8840   -1.2407    0.9378 O   0  0  0  0  0  0  0  0  0  0  0  0
   -3.8491   -0.4579    0.0544 O   0  0  0  0  0  0  0  0  0  0  0  0
   -1.4551   -0.1819    0.2523 C   0  0  2  0  0  0  0  0  0  0  0  0
   -0.5401   -1.0239   -0.6552 C   0  0  2  0  0  0  0  0  0  0  0  0
    0.4004    1.0532   -0.7384 C   0  0  1  0  0  0  0  0  0  0  0  0
   -0.7944    1.2131    0.2241 C   0  0  2  0  0  0  0  0  0  0  0  0
    0.6837   -1.6804    0.0118 C   0  0  2  0  0  0  0  0  0  0  0  0
    1.7470    0.6335   -0.1148 C   0  0  2  0  0  0  0  0  0  0  0  0
    1.6042   -0.6590    0.7004 C   0  0  2  0  0  0  0  0  0  0  0  0
   -1.7344   -0.7788    1.6306 C   0  0  0  0  0  0  0  0  0  0  0  0
   -2.7988   -0.0565   -0.4356 C   0  0  0  0  0  0  0  0  0  0  0  0
   -1.0936   -1.7619   -1.2474 H   0  0  0  0  0  0  0  0  0  0  0  0
   -1.4870    1.9642   -0.1760 H   0  0  0  0  0  0  0  0  0  0  0  0
    0.3839   -2.4519    0.7292 H   0  0  0  0  0  0  0  0  0  0  0  0
    2.4868    0.4869   -0.9124 H   0  0  0  0  0  0  0  0  0  0  0  0
    1.2088   -0.4062    1.6889 H   0  0  0  0  0  0  0  0  0  0  0  0
   -0.8366   -0.8499    2.2490 H   0  0  0  0  0  0  0  0  0  0  0  0
   -2.1473   -1.7914    1.5463 H   0  0  0  0  0  0  0  0  0  0  0  0
   -2.4576   -0.1760    2.1931 H   0  0  0  0  0  0  0  0  0  0  0  0
   -2.7945    0.4062   -1.4386 H   0  0  0  0  0  0  0  0  0  0  0  0
   -0.2284    2.6675   -1.6623 H   0  0  0  0  0  0  0  0  0  0  0  0
   -1.2378    1.8293    2.0155 H   0  0  0  0  0  0  0  0  0  0  0  0
    0.8196   -3.0296   -1.4025 H   0  0  0  0  0  0  0  0  0  0  0  0
    3.1020    1.3321    1.1038 H   0  0  0  0  0  0  0  0  0  0  0  0
    2.7440   -2.0563    1.4484 H   0  0  0  0  0  0  0  0  0  0  0  0
  1  9  1  0  0  0  0
  1 10  1  0  0  0  0
  2 10  1  0  0  0  0
  2 26  1  0  0  0  0
  3 11  1  0  0  0  0
  3 27  1  0  0  0  0
  4 12  1  0  0  0  0
  4 28  1  0  0  0  0
  5 13  1  0  0  0  0
  5 29  1  0  0  0  0
  6 14  1  0  0  0  0
  6 30  1  0  0  0  0
  7 16  2  0  0  0  0
  8  9  1  0  0  0  0
  8 11  1  0  0  0  0
  8 15  1  0  0  0  0
  8 16  1  0  0  0  0
  9 12  1  0  0  0  0
  9 17  1  0  0  0  0
 10 11  1  0  0  0  0
 10 13  1  0  0  0  0
 11 18  1  0  0  0  0
 12 14  1  0  0  0  0
 12 19  1  0  0  0  0
 13 14  1  0  0  0  0
 13 20  1  0  0  0  0
 14 21  1  0  0  0  0
 15 22  1  0  0  0  0
 15 23  1  0  0  0  0
 15 24  1  0  0  0  0
 16 25  1  0  0  0  0
M  END
> <PUBCHEM_COMPOUND_CID>
129635401

> <PUBCHEM_CONFORMER_RMSD>
0.6

> <PUBCHEM_CONFORMER_DIVERSEORDER>
1
4
2
3

> <PUBCHEM_MMFF94_PARTIAL_CHARGES>
21
1 -0.56
10 0.56
11 0.28
12 0.28
13 0.28
14 0.28
16 0.45
2 -0.68
25 0.06
26 0.4
27 0.4
28 0.4
29 0.4
3 -0.68
30 0.4
4 -0.68
5 -0.68
6 -0.68
7 -0.57
8 0.06
9 0.28

> <PUBCHEM_EFFECTIVE_ROTOR_COUNT>
2.2

> <PUBCHEM_PHARMACOPHORE_FEATURES>
13
1 1 acceptor
1 2 acceptor
1 2 donor
1 3 acceptor
1 3 donor
1 4 acceptor
1 4 donor
1 5 acceptor
1 5 donor
1 6 acceptor
1 6 donor
1 7 acceptor
8 1 8 9 10 11 12 13 14 rings

> <PUBCHEM_HEAVY_ATOM_COUNT>
16

> <PUBCHEM_ATOM_DEF_STEREO_COUNT>
4

> <PUBCHEM_ATOM_UDEF_STEREO_COUNT>
3

> <PUBCHEM_BOND_DEF_STEREO_COUNT>
0

> <PUBCHEM_BOND_UDEF_STEREO_COUNT>
0

> <PUBCHEM_ISOTOPIC_ATOM_COUNT>
0

> <PUBCHEM_COMPONENT_COUNT>
1

> <PUBCHEM_CACTVS_TAUTO_COUNT>
1

> <PUBCHEM_CONFORMER_ID>
07BA144900000001

> <PUBCHEM_MMFF94_ENERGY>
60.1909

> <PUBCHEM_FEATURE_SELFOVERLAP>
66.05

> <PUBCHEM_SHAPE_FINGERPRINT>
10702982 57 17467929896222434364
12423570 1 18051098489688361342
12491281 212 16341199754905586336
13024252 1 15576691470487125610
14181834 199 18335979856548627047
14817 1 16973955657122341415
15775835 57 18057884834569283737
15881359 60 17979033224896884398
16945 1 18201716215253254367
20511035 2 18191584370222186251
21922407 69 17917722261766805475
22344851 12 16271928263313371498
23419403 2 17905282387215896609
241688 4 17902802863919604363
2748010 2 18262230006730761365
5084963 1 16988570069468297714
528862 383 18335694005000072506
81228 2 17683532736017685668

> <PUBCHEM_SHAPE_MULTIPOLES>
288.19
3.58
2.05
1.37
2.02
0.15
-0.09
-0.75
-0.64
-1.14
0.29
-0.01
0.13
0.05

> <PUBCHEM_SHAPE_SELFOVERLAP>
614.247

> <PUBCHEM_SHAPE_VOLUME>
158.3

> <PUBCHEM_COORDINATE_TYPE>
2
5
10