129669671
  -OEChem-05072106003D

 28 28  0     1  0  0  0  0  0999 V2000
    0.2327   -0.1414    1.8312 O   0  0  0  0  0  0  0  0  0  0  0  0
   -0.8941   -1.8765   -0.1439 O   0  0  0  0  0  0  0  0  0  0  0  0
    3.2298    0.3023   -1.4205 O   0  0  0  0  0  0  0  0  0  0  0  0
    1.8095   -1.9465   -0.0498 O   0  0  0  0  0  0  0  0  0  0  0  0
   -2.0429    1.5598   -0.5454 O   0  0  0  0  0  0  0  0  0  0  0  0
   -4.4554    0.3010    0.0059 O   0  0  0  0  0  0  0  0  0  0  0  0
    0.4513    0.0070    0.4395 C   0  0  2  0  0  0  0  0  0  0  0  0
    0.8400    1.4540    0.1260 C   0  0  0  0  0  0  0  0  0  0  0  0
   -0.7548   -0.4694   -0.3477 C   0  0  2  0  0  0  0  0  0  0  0  0
    2.3318    1.5268    0.4571 C   0  0  0  0  0  0  0  0  0  0  0  0
    2.9034    0.2073   -0.0515 C   0  0  1  0  0  0  0  0  0  0  0  0
    1.7303   -0.7334    0.0987 C   0  0  0  0  0  0  0  0  0  0  0  0
   -2.0558    0.2533    0.0410 C   0  0  2  0  0  0  0  0  0  0  0  0
   -3.3258   -0.4442   -0.4408 C   0  0  0  0  0  0  0  0  0  0  0  0
    0.2842    2.1828    0.7249 H   0  0  0  0  0  0  0  0  0  0  0  0
    0.6990    1.6866   -0.9367 H   0  0  0  0  0  0  0  0  0  0  0  0
   -0.5679   -0.3332   -1.4203 H   0  0  0  0  0  0  0  0  0  0  0  0
    2.7964    2.3965   -0.0184 H   0  0  0  0  0  0  0  0  0  0  0  0
    2.4726    1.6115    1.5408 H   0  0  0  0  0  0  0  0  0  0  0  0
    3.7676   -0.1161    0.5341 H   0  0  0  0  0  0  0  0  0  0  0  0
   -2.1242    0.3853    1.1270 H   0  0  0  0  0  0  0  0  0  0  0  0
    0.9670    0.2654    2.3196 H   0  0  0  0  0  0  0  0  0  0  0  0
   -3.4084   -1.4577   -0.0378 H   0  0  0  0  0  0  0  0  0  0  0  0
   -3.3611   -0.4807   -1.5345 H   0  0  0  0  0  0  0  0  0  0  0  0
   -1.0522   -2.0218    0.8048 H   0  0  0  0  0  0  0  0  0  0  0  0
    3.5901   -0.5580   -1.6958 H   0  0  0  0  0  0  0  0  0  0  0  0
   -2.8616    2.0093   -0.2743 H   0  0  0  0  0  0  0  0  0  0  0  0
   -5.2472   -0.1608   -0.3189 H   0  0  0  0  0  0  0  0  0  0  0  0
  1  7  1  0  0  0  0
  1 22  1  0  0  0  0
  2  9  1  0  0  0  0
  2 25  1  0  0  0  0
  3 11  1  0  0  0  0
  3 26  1  0  0  0  0
  4 12  2  0  0  0  0
  5 13  1  0  0  0  0
  5 27  1  0  0  0  0
  6 14  1  0  0  0  0
  6 28  1  0  0  0  0
  7  8  1  0  0  0  0
  7  9  1  0  0  0  0
  7 12  1  0  0  0  0
  8 10  1  0  0  0  0
  8 15  1  0  0  0  0
  8 16  1  0  0  0  0
  9 13  1  0  0  0  0
  9 17  1  0  0  0  0
 10 11  1  0  0  0  0
 10 18  1  0  0  0  0
 10 19  1  0  0  0  0
 11 12  1  0  0  0  0
 11 20  1  0  0  0  0
 13 14  1  0  0  0  0
 13 21  1  0  0  0  0
 14 23  1  0  0  0  0
 14 24  1  0  0  0  0
M  END
> <PUBCHEM_COMPOUND_CID>
129669671

> <PUBCHEM_CONFORMER_RMSD>
0.6

> <PUBCHEM_CONFORMER_DIVERSEORDER>
7
21
51
41
53
18
54
11
55
31
40
58
30
29
22
34
60
46
14
56
57
44
36
32
1
38
9
49
10
39
59
23
15
6
8
16
26
35
48
42
28
13
45
27
19
24
47
25
3
20
50
33
43
37
2
17
5
12
4
52

> <PUBCHEM_MMFF94_PARTIAL_CHARGES>
17
1 -0.68
11 0.34
12 0.45
13 0.28
14 0.28
2 -0.68
22 0.4
25 0.4
26 0.4
27 0.4
28 0.4
3 -0.68
4 -0.57
5 -0.68
6 -0.68
7 0.34
9 0.28

> <PUBCHEM_EFFECTIVE_ROTOR_COUNT>
3.8

> <PUBCHEM_PHARMACOPHORE_FEATURES>
12
1 1 acceptor
1 1 donor
1 2 acceptor
1 2 donor
1 3 acceptor
1 3 donor
1 4 acceptor
1 5 acceptor
1 5 donor
1 6 acceptor
1 6 donor
5 7 8 10 11 12 rings

> <PUBCHEM_HEAVY_ATOM_COUNT>
14

> <PUBCHEM_ATOM_DEF_STEREO_COUNT>
3

> <PUBCHEM_ATOM_UDEF_STEREO_COUNT>
1

> <PUBCHEM_BOND_DEF_STEREO_COUNT>
0

> <PUBCHEM_BOND_UDEF_STEREO_COUNT>
0

> <PUBCHEM_ISOTOPIC_ATOM_COUNT>
0

> <PUBCHEM_COMPONENT_COUNT>
1

> <PUBCHEM_CACTVS_TAUTO_COUNT>
4

> <PUBCHEM_CONFORMER_ID>
07BA9A2700000007

> <PUBCHEM_MMFF94_ENERGY>
29.042

> <PUBCHEM_FEATURE_SELFOVERLAP>
60.923

> <PUBCHEM_SHAPE_FINGERPRINT>
11031198 65 18260556631780063478
11471102 20 18413384341293770421
12138202 97 17603877752955435874
12491281 212 18337965501539350945
12897270 3 18411135882901208020
12932764 1 17774706615715838317
13380535 21 18336271227193557107
13380535 76 18338228366443964330
13380536 305 18342455971361714704
14144814 61 18412259528203447361
14325111 11 18412539921017197893
14911166 2 18342748424744332652
15775835 57 18410857672278996965
16945 1 18410292536087053576
170605 34 17968090945217129105
17844478 74 18260272953712041769
18186145 218 18131351903814194657
20645477 70 18340198584407968671
20653085 51 18263935499658044240
20820808 20 18272085062789734648
21501502 16 18265615373152587013
23402539 116 18338782498739531484
23402655 69 18342734105286749813
23559900 14 18271535286540279284
25 1 18409167731454906662
2748010 2 18265602187355185605
276578 36 16877655755990139409
4990 188 17917717911112588823
5084963 1 18130497566178489515
528886 8 18339918320284480928
7364860 26 18271801303096221970

> <PUBCHEM_SHAPE_MULTIPOLES>
252.9
5.56
1.6
0.96
4.28
0.23
0.16
-0.75
-1.18
-0.43
-0.03
-0.41
-0.04
0.1

> <PUBCHEM_SHAPE_SELFOVERLAP>
515.075

> <PUBCHEM_SHAPE_VOLUME>
146.9

> <PUBCHEM_COORDINATE_TYPE>
2
5
10