129689578
  -OEChem-05072106003D

 33 33  0     1  0  0  0  0  0999 V2000
   -0.1148   -0.6437    0.2788 O   0  0  0  0  0  0  0  0  0  0  0  0
   -2.5839   -0.0879    1.8216 O   0  0  0  0  0  0  0  0  0  0  0  0
   -2.3270    1.6828   -1.3444 O   0  0  0  0  0  0  0  0  0  0  0  0
   -1.5494   -1.0688   -1.5564 O   0  0  0  0  0  0  0  0  0  0  0  0
    1.6207    0.9138    0.3215 O   0  0  0  0  0  0  0  0  0  0  0  0
   -0.2538    3.0065   -0.1260 O   0  0  0  0  0  0  0  0  0  0  0  0
   -0.7365   -3.2946   -0.1097 O   0  0  0  0  0  0  0  0  0  0  0  0
    2.4194   -0.9331   -0.8075 O   0  0  0  0  0  0  0  0  0  0  0  0
   -2.4687    0.0107    0.4028 C   0  0  1  0  0  0  0  0  0  0  0  0
   -2.0881    1.4522    0.0441 C   0  0  1  0  0  0  0  0  0  0  0  0
   -1.4389   -1.0113   -0.1313 C   0  0  2  0  0  0  0  0  0  0  0  0
   -0.6220    1.7299    0.3875 C   0  0  1  0  0  0  0  0  0  0  0  0
    0.3046    0.6465   -0.1648 C   0  0  2  0  0  0  0  0  0  0  0  0
   -1.7037   -2.4129    0.4259 C   0  0  0  0  0  0  0  0  0  0  0  0
    2.5897    0.0368   -0.0816 C   0  0  0  0  0  0  0  0  0  0  0  0
    3.9128    0.4570    0.5142 C   0  0  0  0  0  0  0  0  0  0  0  0
    5.0395   -0.4841    0.1254 C   0  0  0  0  0  0  0  0  0  0  0  0
   -3.4513   -0.2243   -0.0258 H   0  0  0  0  0  0  0  0  0  0  0  0
   -2.7154    2.1675    0.5897 H   0  0  0  0  0  0  0  0  0  0  0  0
   -0.5066    1.7702    1.4781 H   0  0  0  0  0  0  0  0  0  0  0  0
    0.3350    0.6876   -1.2615 H   0  0  0  0  0  0  0  0  0  0  0  0
   -2.6948   -2.7735    0.1318 H   0  0  0  0  0  0  0  0  0  0  0  0
   -1.6077   -2.4401    1.5157 H   0  0  0  0  0  0  0  0  0  0  0  0
   -3.2777    0.5320    2.1041 H   0  0  0  0  0  0  0  0  0  0  0  0
   -3.2719    1.5237   -1.5097 H   0  0  0  0  0  0  0  0  0  0  0  0
   -1.2252   -1.9368   -1.8499 H   0  0  0  0  0  0  0  0  0  0  0  0
   -0.8593    3.6632    0.2582 H   0  0  0  0  0  0  0  0  0  0  0  0
   -0.9227   -4.1789    0.2494 H   0  0  0  0  0  0  0  0  0  0  0  0
    4.1458    1.4675    0.1622 H   0  0  0  0  0  0  0  0  0  0  0  0
    3.8129    0.4708    1.6047 H   0  0  0  0  0  0  0  0  0  0  0  0
    4.8355   -1.5041    0.4676 H   0  0  0  0  0  0  0  0  0  0  0  0
    5.1683   -0.5153   -0.9617 H   0  0  0  0  0  0  0  0  0  0  0  0
    5.9826   -0.1551    0.5725 H   0  0  0  0  0  0  0  0  0  0  0  0
  1 11  1  0  0  0  0
  1 13  1  0  0  0  0
  2  9  1  0  0  0  0
  2 24  1  0  0  0  0
  3 10  1  0  0  0  0
  3 25  1  0  0  0  0
  4 11  1  0  0  0  0
  4 26  1  0  0  0  0
  5 13  1  0  0  0  0
  5 15  1  0  0  0  0
  6 12  1  0  0  0  0
  6 27  1  0  0  0  0
  7 14  1  0  0  0  0
  7 28  1  0  0  0  0
  8 15  2  0  0  0  0
  9 10  1  0  0  0  0
  9 11  1  0  0  0  0
  9 18  1  0  0  0  0
 10 12  1  0  0  0  0
 10 19  1  0  0  0  0
 11 14  1  0  0  0  0
 12 13  1  0  0  0  0
 12 20  1  0  0  0  0
 13 21  1  0  0  0  0
 14 22  1  0  0  0  0
 14 23  1  0  0  0  0
 15 16  1  0  0  0  0
 16 17  1  0  0  0  0
 16 29  1  0  0  0  0
 16 30  1  0  0  0  0
 17 31  1  0  0  0  0
 17 32  1  0  0  0  0
 17 33  1  0  0  0  0
M  END
> <PUBCHEM_COMPOUND_CID>
129689578

> <PUBCHEM_CONFORMER_RMSD>
0.6

> <PUBCHEM_CONFORMER_DIVERSEORDER>
4
28
93
82
106
32
80
132
16
140
134
7
142
38
71
109
141
145
96
53
144
131
102
76
40
94
68
27
72
19
108
143
83
126
43
113
23
147
61
8
105
98
137
2
26
114
130
6
17
110
121
54
77
48
124
66
41
79
52
146
65
64
122
11
91
116
47
111
115
50
14
21
103
37
138
15
20
120
10
3
45
136
36
90
1
35
60
42
34
129
25
135
101
118
51
89
29
44
127
33
123
95
24
22
100
63
70
75
78
97
117
67
119
104
57
18
74
59
9
56
84
39
107
133
81
87
112
85
13
92
73
46
55
5
31
12
86
62
58
99
125
69
30
128
49
88
139

> <PUBCHEM_MMFF94_PARTIAL_CHARGES>
21
1 -0.56
10 0.28
11 0.56
12 0.28
13 0.56
14 0.28
15 0.66
16 0.06
2 -0.68
24 0.4
25 0.4
26 0.4
27 0.4
28 0.4
3 -0.68
4 -0.68
5 -0.43
6 -0.68
7 -0.68
8 -0.57
9 0.28

> <PUBCHEM_EFFECTIVE_ROTOR_COUNT>
5.2

> <PUBCHEM_PHARMACOPHORE_FEATURES>
14
1 1 acceptor
1 17 hydrophobe
1 2 acceptor
1 2 donor
1 3 acceptor
1 3 donor
1 4 acceptor
1 4 donor
1 6 acceptor
1 6 donor
1 7 acceptor
1 7 donor
1 8 acceptor
6 1 9 10 11 12 13 rings

> <PUBCHEM_HEAVY_ATOM_COUNT>
17

> <PUBCHEM_ATOM_DEF_STEREO_COUNT>
4

> <PUBCHEM_ATOM_UDEF_STEREO_COUNT>
1

> <PUBCHEM_BOND_DEF_STEREO_COUNT>
0

> <PUBCHEM_BOND_UDEF_STEREO_COUNT>
0

> <PUBCHEM_ISOTOPIC_ATOM_COUNT>
0

> <PUBCHEM_COMPONENT_COUNT>
1

> <PUBCHEM_CACTVS_TAUTO_COUNT>
1

> <PUBCHEM_CONFORMER_ID>
07BAE7EA00000004

> <PUBCHEM_MMFF94_ENERGY>
37.2667

> <PUBCHEM_FEATURE_SELFOVERLAP>
71.123

> <PUBCHEM_SHAPE_FINGERPRINT>
11132069 177 18272362088581337624
12382932 28 18341900722606623082
12500047 106 18336818707075282596
13024252 1 17603303748035528769
14577589 140 18260547792642468152
15309172 13 18341059510053468369
16945 1 18196676174690641993
200 152 17060325349269236213
20510252 161 18199752453237429088
20645476 183 17895188853297967565
20871998 184 18201443609447346166
21339142 51 18409724075901945396
21501502 16 18123196963251555152
21650355 55 18410851101084685120
23402539 116 18343574144954708045
23419403 2 17271981432659076769
23557571 272 18272097123422028444
23559900 14 18341888564340009776
257057 1 17907570685624629430
2748010 2 18193288390033371287
4175511 318 17895471423486291724
5706482 22 18337665309089753147
598444 67 18124900995884637607
6333449 129 18413105039702425744
81228 2 18412829117865033035
8809292 202 18412544327717018666
9709674 26 18271807896092795070

> <PUBCHEM_SHAPE_MULTIPOLES>
302.9
6.01
2.7
1.03
9.95
0.72
0.01
0.54
-0.67
-1.92
0.2
-0.71
0.02
0.36

> <PUBCHEM_SHAPE_SELFOVERLAP>
610.437

> <PUBCHEM_SHAPE_VOLUME>
174

> <PUBCHEM_COORDINATE_TYPE>
2
5
10