129689989
  -OEChem-05072106003D

 51 51  0     1  0  0  0  0  0999 V2000
   -1.7386   -0.7106    0.6549 O   0  0  0  0  0  0  0  0  0  0  0  0
   -0.7719    1.3910    0.8739 O   0  0  0  0  0  0  0  0  0  0  0  0
   -2.8652    2.4822   -0.7898 O   0  0  0  0  0  0  0  0  0  0  0  0
   -3.8142    0.5380   -2.6838 O   0  0  0  0  0  0  0  0  0  0  0  0
   -4.4785   -1.9628   -1.4598 O   0  0  0  0  0  0  0  0  0  0  0  0
   -1.9339   -3.2049    1.7441 O   0  0  0  0  0  0  0  0  0  0  0  0
    3.6707    2.2019   -0.7316 O   0  0  0  0  0  0  0  0  0  0  0  0
    1.4074    2.8641    0.4397 O   0  0  0  0  0  0  0  0  0  0  0  0
    3.7515    0.3916    1.5017 O   0  0  0  0  0  0  0  0  0  0  0  0
    4.3549   -1.0920   -1.8028 O   0  0  0  0  0  0  0  0  0  0  0  0
    6.4731   -2.1929   -0.3715 O   0  0  0  0  0  0  0  0  0  0  0  0
   -2.0042    0.6956    0.6296 C   0  0  1  0  0  0  0  0  0  0  0  0
   -2.4572    1.1146   -0.7790 C   0  0  1  0  0  0  0  0  0  0  0  0
   -3.6129    0.2606   -1.2956 C   0  0  2  0  0  0  0  0  0  0  0  0
   -3.2986   -1.2268   -1.1463 C   0  0  1  0  0  0  0  0  0  0  0  0
   -2.8344   -1.5475    0.2779 C   0  0  1  0  0  0  0  0  0  0  0  0
   -2.9850    1.0970    1.7383 C   0  0  0  0  0  0  0  0  0  0  0  0
   -2.3540   -2.9911    0.4094 C   0  0  0  0  0  0  0  0  0  0  0  0
   -2.4831    0.6573    3.0974 C   0  0  0  0  0  0  0  0  0  0  0  0
    0.3134    0.7366    0.2424 C   0  0  0  0  0  0  0  0  0  0  0  0
    1.4826    1.6887    0.0784 C   0  0  0  0  0  0  0  0  0  0  0  0
    2.7425    1.1345   -0.5843 C   0  0  2  0  0  0  0  0  0  0  0  0
    3.4386   -0.0083    0.1707 C   0  0  1  0  0  0  0  0  0  0  0  0
    4.6925   -0.5863   -0.5116 C   0  0  1  0  0  0  0  0  0  0  0  0
    5.3042   -1.7303    0.2976 C   0  0  0  0  0  0  0  0  0  0  0  0
   -1.6431    1.0596   -1.5069 H   0  0  0  0  0  0  0  0  0  0  0  0
   -4.5550    0.5173   -0.7979 H   0  0  0  0  0  0  0  0  0  0  0  0
   -2.5297   -1.5164   -1.8729 H   0  0  0  0  0  0  0  0  0  0  0  0
   -3.6531   -1.4141    0.9949 H   0  0  0  0  0  0  0  0  0  0  0  0
   -3.0960    2.1875    1.7692 H   0  0  0  0  0  0  0  0  0  0  0  0
   -3.9808    0.6737    1.5747 H   0  0  0  0  0  0  0  0  0  0  0  0
   -1.4954   -3.1769   -0.2446 H   0  0  0  0  0  0  0  0  0  0  0  0
   -3.1515   -3.7012    0.1706 H   0  0  0  0  0  0  0  0  0  0  0  0
   -2.3915   -0.4311    3.1645 H   0  0  0  0  0  0  0  0  0  0  0  0
   -3.1859    0.9750    3.8749 H   0  0  0  0  0  0  0  0  0  0  0  0
   -1.5102    1.0992    3.3348 H   0  0  0  0  0  0  0  0  0  0  0  0
   -3.7255    2.5519   -0.3431 H   0  0  0  0  0  0  0  0  0  0  0  0
   -2.9957    0.3162   -3.1596 H   0  0  0  0  0  0  0  0  0  0  0  0
    0.0825    0.3450   -0.7521 H   0  0  0  0  0  0  0  0  0  0  0  0
    0.6433   -0.0816    0.8908 H   0  0  0  0  0  0  0  0  0  0  0  0
   -5.1566   -1.7388   -0.7998 H   0  0  0  0  0  0  0  0  0  0  0  0
    2.4622    0.8132   -1.5932 H   0  0  0  0  0  0  0  0  0  0  0  0
    2.7160   -0.8299    0.2572 H   0  0  0  0  0  0  0  0  0  0  0  0
   -1.6290   -4.1262    1.8050 H   0  0  0  0  0  0  0  0  0  0  0  0
    5.4475    0.1968   -0.6492 H   0  0  0  0  0  0  0  0  0  0  0  0
    5.5910   -1.4068    1.3024 H   0  0  0  0  0  0  0  0  0  0  0  0
    4.6085   -2.5728    0.3700 H   0  0  0  0  0  0  0  0  0  0  0  0
    3.9773    2.4532    0.1567 H   0  0  0  0  0  0  0  0  0  0  0  0
    2.9195    0.6150    1.9516 H   0  0  0  0  0  0  0  0  0  0  0  0
    5.1681   -1.4503   -2.1978 H   0  0  0  0  0  0  0  0  0  0  0  0
    6.8362   -2.9213    0.1606 H   0  0  0  0  0  0  0  0  0  0  0  0
  1 12  1  0  0  0  0
  1 16  1  0  0  0  0
  2 12  1  0  0  0  0
  2 20  1  0  0  0  0
  3 13  1  0  0  0  0
  3 37  1  0  0  0  0
  4 14  1  0  0  0  0
  4 38  1  0  0  0  0
  5 15  1  0  0  0  0
  5 41  1  0  0  0  0
  6 18  1  0  0  0  0
  6 44  1  0  0  0  0
  7 22  1  0  0  0  0
  7 48  1  0  0  0  0
  8 21  2  0  0  0  0
  9 23  1  0  0  0  0
  9 49  1  0  0  0  0
 10 24  1  0  0  0  0
 10 50  1  0  0  0  0
 11 25  1  0  0  0  0
 11 51  1  0  0  0  0
 12 13  1  0  0  0  0
 12 17  1  0  0  0  0
 13 14  1  0  0  0  0
 13 26  1  0  0  0  0
 14 15  1  0  0  0  0
 14 27  1  0  0  0  0
 15 16  1  0  0  0  0
 15 28  1  0  0  0  0
 16 18  1  0  0  0  0
 16 29  1  0  0  0  0
 17 19  1  0  0  0  0
 17 30  1  0  0  0  0
 17 31  1  0  0  0  0
 18 32  1  0  0  0  0
 18 33  1  0  0  0  0
 19 34  1  0  0  0  0
 19 35  1  0  0  0  0
 19 36  1  0  0  0  0
 20 21  1  0  0  0  0
 20 39  1  0  0  0  0
 20 40  1  0  0  0  0
 21 22  1  0  0  0  0
 22 23  1  0  0  0  0
 22 42  1  0  0  0  0
 23 24  1  0  0  0  0
 23 43  1  0  0  0  0
 24 25  1  0  0  0  0
 24 45  1  0  0  0  0
 25 46  1  0  0  0  0
 25 47  1  0  0  0  0
M  END
> <PUBCHEM_COMPOUND_CID>
129689989

> <PUBCHEM_CONFORMER_RMSD>
1

> <PUBCHEM_CONFORMER_DIVERSEORDER>
1
77
75
38
27
45
78
87
15
22
16
63
35
81
3
79
17
36
53
60
31
6
43
29
55
68
21
71
67
50
25
57
54
49
59
82
76
26
58
7
13
70
42
56
23
52
73
61
20
84
46
12
28
9
41
69
8
47
34
30
2
39
33
19
64
40
4
65
24
80
62
85
14
10
74
18
37
83
44
11
48
66
72
5
32
86
51

> <PUBCHEM_MMFF94_PARTIAL_CHARGES>
31
1 -0.56
10 -0.68
11 -0.68
12 0.56
13 0.28
14 0.28
15 0.28
16 0.28
18 0.28
2 -0.56
20 0.34
21 0.45
22 0.34
23 0.28
24 0.28
25 0.28
3 -0.68
37 0.4
38 0.4
4 -0.68
41 0.4
44 0.4
48 0.4
49 0.4
5 -0.68
50 0.4
51 0.4
6 -0.68
7 -0.68
8 -0.57
9 -0.68

> <PUBCHEM_EFFECTIVE_ROTOR_COUNT>
10.2

> <PUBCHEM_PHARMACOPHORE_FEATURES>
21
1 1 acceptor
1 10 acceptor
1 10 donor
1 11 acceptor
1 11 donor
1 19 hydrophobe
1 2 acceptor
1 3 acceptor
1 3 donor
1 4 acceptor
1 4 donor
1 5 acceptor
1 5 donor
1 6 acceptor
1 6 donor
1 7 acceptor
1 7 donor
1 8 acceptor
1 9 acceptor
1 9 donor
6 1 12 13 14 15 16 rings

> <PUBCHEM_HEAVY_ATOM_COUNT>
25

> <PUBCHEM_ATOM_DEF_STEREO_COUNT>
8

> <PUBCHEM_ATOM_UDEF_STEREO_COUNT>
0

> <PUBCHEM_BOND_DEF_STEREO_COUNT>
0

> <PUBCHEM_BOND_UDEF_STEREO_COUNT>
0

> <PUBCHEM_ISOTOPIC_ATOM_COUNT>
0

> <PUBCHEM_COMPONENT_COUNT>
1

> <PUBCHEM_CACTVS_TAUTO_COUNT>
10

> <PUBCHEM_CONFORMER_ID>
07BAE98500000001

> <PUBCHEM_MMFF94_ENERGY>
63.9058

> <PUBCHEM_FEATURE_SELFOVERLAP>
106.689

> <PUBCHEM_SHAPE_FINGERPRINT>
10764073 3 18119279283949195499
107951 10 16371289901118813145
11315181 36 17704066266665302808
11595378 159 13614249186985880678
12173636 292 15213286548258061977
12363563 72 17989208178562396380
12523318 42 15338825456837479398
12553582 1 18336272236964117482
12555020 224 18335695014359819095
12596602 18 14333114274862374142
12633257 1 18340220600151487998
14178342 30 17346332452785414700
14251740 79 18409161100210277791
14848178 5 18201992223285295174
15163728 17 14636527729719684927
15880784 105 16630233758652195790
17349148 13 18273211993435837558
20281475 54 18343027704977443792
20645477 70 18261108604129658332
21304303 282 16556221087022497337
21864079 5 9078846164459711864
22393880 68 17895184532982893474
22956985 138 12672065638530582716
23466295 7 18115884051418089955
23559900 14 18338786918583119488
23572383 38 18341601617169217110
27216 239 9583251538965398231
312425 54 17202202894614422690
312425 83 17603863459515219972
3729539 64 18116703028898919199
44062 13 18410008819116328743
5104073 3 17418091014526430018
559249 180 18271242707933534325
57527585 103 18265641868848761615
5924683 9 16916781851368247517
7808743 9 9006471932991140326
9709674 26 18338229495930302548

> <PUBCHEM_SHAPE_MULTIPOLES>
449.93
11.31
3.06
2.05
16.94
1.18
-0.57
6.11
3.23
-0.38
-0.39
-2.66
-0.12
0.01

> <PUBCHEM_SHAPE_SELFOVERLAP>
900.483

> <PUBCHEM_SHAPE_VOLUME>
262

> <PUBCHEM_COORDINATE_TYPE>
2
5
10