129661888
  -OEChem-05072106003D

 32 31  0     1  0  0  0  0  0999 V2000
   -4.5051    0.4158    0.0780 P   0  0  0  0  0  0  0  0  0  0  0  0
    0.6108   -0.1258    1.5139 O   0  0  0  0  0  0  0  0  0  0  0  0
   -0.8155   -0.6963   -1.8215 O   0  0  0  0  0  0  0  0  0  0  0  0
    1.6534   -2.3779    0.0605 O   0  0  0  0  0  0  0  0  0  0  0  0
   -3.1458   -0.3518   -0.3388 O   0  0  0  0  0  0  0  0  0  0  0  0
    3.9188   -1.2325    0.7602 O   0  0  0  0  0  0  0  0  0  0  0  0
    4.8753    1.1677    0.1079 O   0  0  0  0  0  0  0  0  0  0  0  0
   -4.3938    0.4852    1.6898 O   0  0  0  0  0  0  0  0  0  0  0  0
   -4.2407    1.9443   -0.3792 O   0  0  0  0  0  0  0  0  0  0  0  0
   -5.7700   -0.2004   -0.4441 O   0  0  0  0  0  0  0  0  0  0  0  0
    0.6053   -0.2207    0.0924 C   0  0  2  0  0  0  0  0  0  0  0  0
   -0.7710   -0.7102   -0.3952 C   0  0  1  0  0  0  0  0  0  0  0  0
    1.8097   -1.0400   -0.3962 C   0  0  1  0  0  0  0  0  0  0  0  0
   -1.9054    0.1757    0.1206 C   0  0  0  0  0  0  0  0  0  0  0  0
    3.1769   -0.5375    0.0644 C   0  0  0  0  0  0  0  0  0  0  0  0
    3.5972    0.8435   -0.4012 C   0  0  0  0  0  0  0  0  0  0  0  0
    5.3000    2.4607   -0.3116 C   0  0  0  0  0  0  0  0  0  0  0  0
    0.7314    0.8020   -0.2854 H   0  0  0  0  0  0  0  0  0  0  0  0
   -0.9473   -1.7416   -0.0677 H   0  0  0  0  0  0  0  0  0  0  0  0
    1.8309   -1.0758   -1.4906 H   0  0  0  0  0  0  0  0  0  0  0  0
   -1.9113    0.2049    1.2139 H   0  0  0  0  0  0  0  0  0  0  0  0
   -1.7947    1.1932   -0.2683 H   0  0  0  0  0  0  0  0  0  0  0  0
    1.4323    0.3192    1.7819 H   0  0  0  0  0  0  0  0  0  0  0  0
    3.6196    0.8432   -1.4960 H   0  0  0  0  0  0  0  0  0  0  0  0
    2.8687    1.5740   -0.0372 H   0  0  0  0  0  0  0  0  0  0  0  0
   -1.6986   -1.0036   -2.0890 H   0  0  0  0  0  0  0  0  0  0  0  0
    1.5677   -2.3527    1.0291 H   0  0  0  0  0  0  0  0  0  0  0  0
    6.2903    2.6508    0.1107 H   1  0  0  0  0  0  0  0  0  0  0  0
    4.6099    3.2270    0.0544 H   0  0  0  0  0  0  0  0  0  0  0  0
    5.3696    2.5047   -1.4027 H   0  0  0  0  0  0  0  0  0  0  0  0
   -5.1541    0.8320    2.2035 H   0  0  0  0  0  0  0  0  0  0  0  0
   -4.9632    2.6005   -0.2818 H   0  0  0  0  0  0  0  0  0  0  0  0
  1  5  1  0  0  0  0
  1  8  1  0  0  0  0
  1  9  1  0  0  0  0
  1 10  2  0  0  0  0
  2 11  1  0  0  0  0
  2 23  1  0  0  0  0
  3 12  1  0  0  0  0
  3 26  1  0  0  0  0
  4 13  1  0  0  0  0
  4 27  1  0  0  0  0
  5 14  1  0  0  0  0
  6 15  2  0  0  0  0
  7 16  1  0  0  0  0
  7 17  1  0  0  0  0
  8 31  1  0  0  0  0
  9 32  1  0  0  0  0
 11 12  1  0  0  0  0
 11 13  1  0  0  0  0
 11 18  1  0  0  0  0
 12 14  1  0  0  0  0
 12 19  1  0  0  0  0
 13 15  1  0  0  0  0
 13 20  1  0  0  0  0
 14 21  1  0  0  0  0
 14 22  1  0  0  0  0
 15 16  1  0  0  0  0
 16 24  1  0  0  0  0
 16 25  1  0  0  0  0
 17 28  1  0  0  0  0
 17 29  1  0  0  0  0
 17 30  1  0  0  0  0
M  ISO  1  28   2
M  END
> <PUBCHEM_COMPOUND_CID>
129661888

> <PUBCHEM_CONFORMER_RMSD>
0.8

> <PUBCHEM_CONFORMER_DIVERSEORDER>
1
83
39
68
81
52
101
87
27
21
30
108
76
51
100
55
41
92
88
113
85
58
78
97
89
50
72
99
35
69
48
34
62
46
93
109
114
91
96
104
10
94
40
107
65
49
2
42
61
112
71
66
32
6
5
90
75
105
82
56
4
3
20
53
98
103
33
115
15
57
106
25
7
47
102
44
110
111
37
64
45
74
63
60
24
13
79
86
36
43
29
73
38
18
11
59
54
12
95
77
116
80
14
17
19
26
70
67
31
8
9
84
16
23
28
22

> <PUBCHEM_MMFF94_PARTIAL_CHARGES>
22
1 1.51
10 -0.7
11 0.28
12 0.28
13 0.34
14 0.28
15 0.45
16 0.34
17 0.28
2 -0.68
23 0.4
26 0.4
27 0.4
3 -0.68
31 0.5
32 0.5
4 -0.68
5 -0.55
6 -0.57
7 -0.56
8 -0.77
9 -0.77

> <PUBCHEM_EFFECTIVE_ROTOR_COUNT>
8

> <PUBCHEM_PHARMACOPHORE_FEATURES>
12
1 10 acceptor
1 2 acceptor
1 2 donor
1 3 acceptor
1 3 donor
1 4 acceptor
1 4 donor
1 6 acceptor
1 7 acceptor
1 8 acceptor
1 9 acceptor
4 1 8 9 10 anion

> <PUBCHEM_HEAVY_ATOM_COUNT>
17

> <PUBCHEM_ATOM_DEF_STEREO_COUNT>
3

> <PUBCHEM_ATOM_UDEF_STEREO_COUNT>
0

> <PUBCHEM_BOND_DEF_STEREO_COUNT>
0

> <PUBCHEM_BOND_UDEF_STEREO_COUNT>
0

> <PUBCHEM_ISOTOPIC_ATOM_COUNT>
1

> <PUBCHEM_COMPONENT_COUNT>
1

> <PUBCHEM_CACTVS_TAUTO_COUNT>
9

> <PUBCHEM_CONFORMER_ID>
07BA7BC000000001

> <PUBCHEM_MMFF94_ENERGY>
-4.2149

> <PUBCHEM_FEATURE_SELFOVERLAP>
60.962

> <PUBCHEM_SHAPE_FINGERPRINT>
10912923 1 18273213080300167843
11132069 177 15719396122657403435
12555020 224 9871469786108951681
12616999 72 17132116814406948734
12633257 1 16009308837836795884
12839892 36 13840258212721892296
13675066 3 17385445397210825407
13955234 65 18335139739998733450
14123238 8 18273495671973409571
14251718 22 18272650182049754399
14251732 16 18263083361335848851
14251764 75 17610078015501071180
14252887 29 17386012715183111387
14993402 34 16415479358821712682
15048467 5 18412262860802897293
15239154 128 18412263913196498309
15342168 16 18188213229565624756
17834072 33 18341889710463430919
17834072 8 12535352272801857809
17862501 102 12251897105397707180
18785283 64 16952267644542073188
20645477 70 18130510717052495230
20871999 31 16987992937707029998
21354914 88 9439410124742010364
21652331 79 18409446985754638620
22713019 99 12679467490694493772
23402539 116 11891329872603861355
23402655 69 17989205945052554916
23532345 1 18337112276147337378
23557571 272 16009306483709570735
23559900 14 18121496856340413963
26918003 58 11241968174863114477
2916195 48 18040713688358613729
4047638 21 18187085053141400946
449060 50 18408044000554112359
474 4 18261958547934536132
4990 188 13470683728737558222
5104073 3 17968661514812026609
559249 180 8357999752762539325
633830 44 17916314835792258471
81539 233 17846499171437998175
90127 26 18262810557729108801
960060 61 13038908863149091736

> <PUBCHEM_SHAPE_MULTIPOLES>
300.88
12.28
1.82
1.07
4.49
0.42
-0.1
7.1
-0.46
-2.34
0.14
0.61
-0.08
-0.56

> <PUBCHEM_SHAPE_SELFOVERLAP>
563.628

> <PUBCHEM_SHAPE_VOLUME>
188.1

> <PUBCHEM_COORDINATE_TYPE>
2
5
10