129641655
  -OEChem-05072106003D

 41 41  0     1  0  0  0  0  0999 V2000
   -0.7772   -0.4823    0.5257 O   0  0  0  0  0  0  0  0  0  0  0  0
    0.0734    2.1590   -1.8830 O   0  0  0  0  0  0  0  0  0  0  0  0
   -2.4721    1.0940   -2.1523 O   0  0  0  0  0  0  0  0  0  0  0  0
   -2.5815    1.6562    1.4506 O   0  0  0  0  0  0  0  0  0  0  0  0
   -2.6347   -1.3137   -0.6849 O   0  0  0  0  0  0  0  0  0  0  0  0
    1.6915    0.8147    0.7984 O   0  0  0  0  0  0  0  0  0  0  0  0
    3.2779   -1.4617   -0.2791 O   0  0  0  0  0  0  0  0  0  0  0  0
   -2.1844   -2.4665    1.7994 O   0  0  0  0  0  0  0  0  0  0  0  0
    1.8068   -3.7241   -0.8311 O   0  0  0  0  0  0  0  0  0  0  0  0
    3.7515    1.3388   -0.1063 O   0  0  0  0  0  0  0  0  0  0  0  0
   -0.1166    0.1175   -0.5930 C   0  0  1  0  0  0  0  0  0  0  0  0
   -0.5637    1.5737   -0.7535 C   0  0  2  0  0  0  0  0  0  0  0  0
   -2.0859    1.6629   -0.9024 C   0  0  2  0  0  0  0  0  0  0  0  0
   -2.7725    0.9144    0.2468 C   0  0  1  0  0  0  0  0  0  0  0  0
   -2.2080   -0.5143    0.4224 C   0  0  2  0  0  0  0  0  0  0  0  0
    1.3850    0.0144   -0.3404 C   0  0  2  0  0  0  0  0  0  0  0  0
    1.8542   -1.4302   -0.1256 C   0  0  1  0  0  0  0  0  0  0  0  0
   -2.7288   -1.1647    1.7077 C   0  0  0  0  0  0  0  0  0  0  0  0
    1.2719   -2.4345   -1.1175 C   0  0  0  0  0  0  0  0  0  0  0  0
    2.9151    1.4219    0.7827 C   0  0  0  0  0  0  0  0  0  0  0  0
    3.0984    2.2242    2.0353 C   0  0  0  0  0  0  0  0  0  0  0  0
   -0.3616   -0.4320   -1.5098 H   0  0  0  0  0  0  0  0  0  0  0  0
   -0.2776    2.1557    0.1310 H   0  0  0  0  0  0  0  0  0  0  0  0
   -2.3835    2.7179   -0.9221 H   0  0  0  0  0  0  0  0  0  0  0  0
   -3.8507    0.8517    0.0533 H   0  0  0  0  0  0  0  0  0  0  0  0
    1.8937    0.4188   -1.2264 H   0  0  0  0  0  0  0  0  0  0  0  0
    1.6532   -1.7514    0.9035 H   0  0  0  0  0  0  0  0  0  0  0  0
   -3.8201   -1.2508    1.6921 H   0  0  0  0  0  0  0  0  0  0  0  0
   -2.4132   -0.6124    2.5983 H   0  0  0  0  0  0  0  0  0  0  0  0
   -0.2416    3.0761   -1.9549 H   0  0  0  0  0  0  0  0  0  0  0  0
   -3.4390    1.1704   -2.2218 H   0  0  0  0  0  0  0  0  0  0  0  0
   -2.9803    2.5335    1.3209 H   0  0  0  0  0  0  0  0  0  0  0  0
   -2.6333   -2.2442   -0.4040 H   0  0  0  0  0  0  0  0  0  0  0  0
    0.1851   -2.5132   -1.0391 H   0  0  0  0  0  0  0  0  0  0  0  0
    1.5518   -2.1791   -2.1447 H   0  0  0  0  0  0  0  0  0  0  0  0
    3.5680   -2.3767   -0.1224 H   0  0  0  0  0  0  0  0  0  0  0  0
   -2.5290   -2.8659    2.6162 H   0  0  0  0  0  0  0  0  0  0  0  0
    1.4286   -4.3400   -1.4816 H   0  0  0  0  0  0  0  0  0  0  0  0
    2.3257    2.9945    2.0978 H   0  0  0  0  0  0  0  0  0  0  0  0
    4.0766    2.7130    2.0133 H   0  0  0  0  0  0  0  0  0  0  0  0
    3.0572    1.5653    2.9062 H   0  0  0  0  0  0  0  0  0  0  0  0
  1 11  1  0  0  0  0
  1 15  1  0  0  0  0
  2 12  1  0  0  0  0
  2 30  1  0  0  0  0
  3 13  1  0  0  0  0
  3 31  1  0  0  0  0
  4 14  1  0  0  0  0
  4 32  1  0  0  0  0
  5 15  1  0  0  0  0
  5 33  1  0  0  0  0
  6 16  1  0  0  0  0
  6 20  1  0  0  0  0
  7 17  1  0  0  0  0
  7 36  1  0  0  0  0
  8 18  1  0  0  0  0
  8 37  1  0  0  0  0
  9 19  1  0  0  0  0
  9 38  1  0  0  0  0
 10 20  2  0  0  0  0
 11 12  1  0  0  0  0
 11 16  1  0  0  0  0
 11 22  1  0  0  0  0
 12 13  1  0  0  0  0
 12 23  1  0  0  0  0
 13 14  1  0  0  0  0
 13 24  1  0  0  0  0
 14 15  1  0  0  0  0
 14 25  1  0  0  0  0
 15 18  1  0  0  0  0
 16 17  1  0  0  0  0
 16 26  1  0  0  0  0
 17 19  1  0  0  0  0
 17 27  1  0  0  0  0
 18 28  1  0  0  0  0
 18 29  1  0  0  0  0
 19 34  1  0  0  0  0
 19 35  1  0  0  0  0
 20 21  1  0  0  0  0
 21 39  1  0  0  0  0
 21 40  1  0  0  0  0
 21 41  1  0  0  0  0
M  END
> <PUBCHEM_COMPOUND_CID>
129641655

> <PUBCHEM_CONFORMER_RMSD>
0.8

> <PUBCHEM_CONFORMER_DIVERSEORDER>
1
129
275
221
282
287
273
305
374
310
317
237
188
276
203
112
365
309
45
307
79
166
267
321
227
358
406
334
95
133
210
117
302
269
303
247
225
81
354
128
379
395
255
51
280
162
42
180
242
230
65
252
253
312
405
97
361
356
289
327
393
161
179
349
91
254
126
32
296
57
331
407
232
311
222
149
50
211
220
177
113
306
187
373
394
37
193
169
250
337
261
340
318
23
214
384
96
15
123
217
93
343
353
100
88
89
363
345
208
30
295
202
375
218
136
167
27
77
272
56
335
115
278
320
35
194
119
70
270
284
257
285
52
258
376
260
265
137
124
12
290
17
401
279
106
190
216
286
336
246
25
274
364
182
372
80
58
198
196
75
251
263
114
85
201
197
73
294
259
380
131
189
8
300
101
233
347
333
186
127
150
383
322
143
213
330
191
153
341
357
99
68
390
11
74
325
268
229
7
103
54
125
163
152
66
178
381
323
293
184
165
176
291
172
71
98
94
409
400
391
308
219
299
264
105
316
240
154
195
315
158
151
9
26
200
396
138
351
60
192
256
314
332
173
144
283
132
14
44
271
130
212
223
348
209
28
387
110
370
234
410
399
48
134
84
359
360
146
108
64
40
408
87
368
55
369
385
382
403
344
147
236
36
183
3
297
328
366
243
204
378
157
304
313
371
160
398
338
135
239
199
339
2
120
170
326
346
31
206
185
83
13
249
102
171
38
116
397
142
76
392
121
389
18
215
82
388
118
86
377
39
29
174
19
159
141
111
155
104
228
367
207
301
224
404
288
156
107
61
53
386
122
47
20
292
352
238
59
241
109
62
277
355
43
63
164
140
145
41
21
245
33
72
6
231
319
281
4
148
168
5
350
226
402
266
34
362
262
46
67
49
324
181
342
298
329
235
90
248
175
22
78
16
139
92
205
244
10
69
411
24

> <PUBCHEM_MMFF94_PARTIAL_CHARGES>
28
1 -0.56
10 -0.57
11 0.28
12 0.28
13 0.28
14 0.28
15 0.56
16 0.28
17 0.28
18 0.28
19 0.28
2 -0.68
20 0.66
21 0.06
3 -0.68
30 0.4
31 0.4
32 0.4
33 0.4
36 0.4
37 0.4
38 0.4
4 -0.68
5 -0.68
6 -0.43
7 -0.68
8 -0.68
9 -0.68

> <PUBCHEM_EFFECTIVE_ROTOR_COUNT>
7.2

> <PUBCHEM_PHARMACOPHORE_FEATURES>
17
1 1 acceptor
1 10 acceptor
1 2 acceptor
1 2 donor
1 3 acceptor
1 3 donor
1 4 acceptor
1 4 donor
1 5 acceptor
1 5 donor
1 7 acceptor
1 7 donor
1 8 acceptor
1 8 donor
1 9 acceptor
1 9 donor
6 1 11 12 13 14 15 rings

> <PUBCHEM_HEAVY_ATOM_COUNT>
21

> <PUBCHEM_ATOM_DEF_STEREO_COUNT>
4

> <PUBCHEM_ATOM_UDEF_STEREO_COUNT>
3

> <PUBCHEM_BOND_DEF_STEREO_COUNT>
0

> <PUBCHEM_BOND_UDEF_STEREO_COUNT>
0

> <PUBCHEM_ISOTOPIC_ATOM_COUNT>
0

> <PUBCHEM_COMPONENT_COUNT>
1

> <PUBCHEM_CACTVS_TAUTO_COUNT>
1

> <PUBCHEM_CONFORMER_ID>
07BA2CB700000001

> <PUBCHEM_MMFF94_ENERGY>
54.6156

> <PUBCHEM_FEATURE_SELFOVERLAP>
86.366

> <PUBCHEM_SHAPE_FINGERPRINT>
10366900 7 18339361864289975804
10906281 52 18041560351430827069
11582403 64 17035217966973953884
12507560 14 17554049831683693247
12633257 1 18264767658293175410
13083527 12 17463690153800282689
13140716 1 18409449150707832082
13294875 104 17105063137373593061
14022347 108 17169009797764343329
14178342 30 18263096538058045539
14223421 5 18410296925453972474
14787075 74 16553104340454667523
15219456 202 18409727335702741916
15309172 13 18271237343688342576
15852999 172 18117251753572015997
16945 1 18126839391844705629
18219364 16 17984967435371290888
19049666 15 18192998105957371680
20600515 1 17458611367763121757
20645476 183 14284745997640810637
20832881 197 17547291103848854317
21202864 24 17694785520859187664
21421861 104 17031386371415920299
21486144 27 18339921507055587205
21501502 16 18341610386890633134
22802520 49 18262803934530848766
23526113 38 17833257632613756998
23557571 272 18186517717694087053
23559900 14 18114175299005617926
238 59 18057575773022938596
2748010 2 18407760334985825326
495365 180 18128795504687995928
5845 1 17822305595105889437
598444 67 17756445763482803895
633830 44 17560808787648223360
7364860 26 18200594683755452198
81228 2 18040727956687915843
9925002 15 17114384204448844870
9981440 41 17984386807116045744

> <PUBCHEM_SHAPE_MULTIPOLES>
373.48
5.52
3.2
1.79
1.79
2.25
-0.2
-1.13
-1.71
1.61
0.22
-0.77
-0.49
2.09

> <PUBCHEM_SHAPE_SELFOVERLAP>
755.642

> <PUBCHEM_SHAPE_VOLUME>
213.8

> <PUBCHEM_COORDINATE_TYPE>
2
5
10