129645344
  -OEChem-05072106003D

 32 36  0     1  0  0  0  0  0999 V2000
    0.8153   -1.6332   -1.5933 P   0  0  2  0  0  0  0  0  0  0  0  0
   -3.0480    0.4373   -0.6353 P   0  0  0  0  0  0  0  0  0  0  0  0
    0.7318    1.0442    0.7995 O   0  0  0  0  0  0  0  0  0  0  0  0
   -0.6732   -1.6700   -0.9423 O   0  0  0  0  0  0  0  0  0  0  0  0
    1.5776   -2.2851   -0.3027 O   0  0  0  0  0  0  0  0  0  0  0  0
   -2.6520   -0.4663    0.6476 O   0  0  0  0  0  0  0  0  0  0  0  0
    1.2022   -0.0826   -1.2774 O   0  0  0  0  0  0  0  0  0  0  0  0
   -1.6841    0.6483   -1.4560 O   0  0  0  0  0  0  0  0  0  0  0  0
   -2.7379    1.9422   -0.1781 O   0  0  0  0  0  0  0  0  0  0  0  0
   -0.9556   -2.8196    1.0657 O   0  0  0  0  0  0  0  0  0  0  0  0
   -1.2821   -0.5935    2.5426 O   0  0  0  0  0  0  0  0  0  0  0  0
    1.4154   -1.6519    2.0204 O   0  0  0  0  0  0  0  0  0  0  0  0
   -1.1018    1.8520    1.9225 O   0  0  0  0  0  0  0  0  0  0  0  0
    2.8474    0.1950    0.3501 O   0  0  0  0  0  0  0  0  0  0  0  0
   -0.5607    2.7536   -0.9220 O   0  0  0  0  0  0  0  0  0  0  0  0
    1.0364   -2.1878   -2.9601 O   0  0  0  0  0  0  0  0  0  0  0  0
   -4.3112    0.1824   -1.3888 O   0  0  0  0  0  0  0  0  0  0  0  0
    4.6749    1.4275    0.1676 O   0  0  0  0  0  0  0  0  0  0  0  0
    2.7190    2.2899   -0.6202 O   0  0  0  0  0  0  0  0  0  0  0  0
   -0.5109   -1.5913    0.4933 C   0  0  2  0  0  0  0  0  0  0  0  0
   -1.2944   -0.4163    1.1150 C   0  0  1  0  0  0  0  0  0  0  0  0
    1.0170   -1.3965    0.6935 C   0  0  2  0  0  0  0  0  0  0  0  0
   -0.6954    1.0002    0.8285 C   0  0  2  0  0  0  0  0  0  0  0  0
    1.4438    0.0012    0.1507 C   0  0  1  0  0  0  0  0  0  0  0  0
   -1.3167    1.6345   -0.4355 C   0  0  0  0  0  0  0  0  0  0  0  0
    3.3435    1.3857   -0.0852 C   0  0  0  0  0  0  0  0  0  0  0  0
   -0.2064   -3.4387    1.0628 H   0  0  0  0  0  0  0  0  0  0  0  0
   -1.3112   -1.5471    2.7280 H   0  0  0  0  0  0  0  0  0  0  0  0
    2.2255   -1.1432    2.1918 H   0  0  0  0  0  0  0  0  0  0  0  0
   -1.0646    2.7727    1.6125 H   0  0  0  0  0  0  0  0  0  0  0  0
   -1.0671    3.0755   -1.6866 H   0  0  0  0  0  0  0  0  0  0  0  0
    5.0779    2.2708   -0.1303 H   0  0  0  0  0  0  0  0  0  0  0  0
  1  4  1  0  0  0  0
  1  5  1  0  0  0  0
  1  7  1  0  0  0  0
  1 16  2  0  0  0  0
  2  6  1  0  0  0  0
  2  8  1  0  0  0  0
  2  9  1  0  0  0  0
  2 17  2  0  0  0  0
  3 23  1  0  0  0  0
  3 24  1  0  0  0  0
  4 20  1  0  0  0  0
  5 22  1  0  0  0  0
  6 21  1  0  0  0  0
  7 24  1  0  0  0  0
  8 25  1  0  0  0  0
  9 25  1  0  0  0  0
 10 20  1  0  0  0  0
 10 27  1  0  0  0  0
 11 21  1  0  0  0  0
 11 28  1  0  0  0  0
 12 22  1  0  0  0  0
 12 29  1  0  0  0  0
 13 23  1  0  0  0  0
 13 30  1  0  0  0  0
 14 24  1  0  0  0  0
 14 26  1  0  0  0  0
 15 25  1  0  0  0  0
 15 31  1  0  0  0  0
 18 26  1  0  0  0  0
 18 32  1  0  0  0  0
 19 26  2  0  0  0  0
 20 21  1  0  0  0  0
 20 22  1  0  0  0  0
 21 23  1  0  0  0  0
 22 24  1  0  0  0  0
 23 25  1  0  0  0  0
M  END
> <PUBCHEM_COMPOUND_CID>
129645344

> <PUBCHEM_CONFORMER_RMSD>
0.8

> <PUBCHEM_CONFORMER_DIVERSEORDER>
1
3
2

> <PUBCHEM_MMFF94_PARTIAL_CHARGES>
32
1 1.51
10 -0.68
11 -0.68
12 -0.68
13 -0.68
14 -0.43
15 -0.66
16 -0.7
17 -0.7
18 -0.65
19 -0.57
2 1.51
20 0.56
21 0.56
22 0.56
23 0.56
24 0.84
25 0.77
26 0.87
27 0.4
28 0.4
29 0.4
3 -0.56
30 0.4
31 0.4
32 0.5
4 -0.55
5 -0.55
6 -0.55
7 -0.55
8 -0.53
9 -0.53

> <PUBCHEM_EFFECTIVE_ROTOR_COUNT>
3.4

> <PUBCHEM_PHARMACOPHORE_FEATURES>
19
1 10 acceptor
1 10 donor
1 11 acceptor
1 11 donor
1 12 acceptor
1 12 donor
1 13 acceptor
1 13 donor
1 15 acceptor
1 15 donor
1 16 acceptor
1 17 acceptor
1 18 acceptor
1 19 acceptor
1 3 acceptor
3 18 19 26 anion
6 3 20 21 22 23 24 rings
7 1 4 5 7 20 22 24 rings
7 2 6 8 9 21 23 25 rings

> <PUBCHEM_HEAVY_ATOM_COUNT>
26

> <PUBCHEM_ATOM_DEF_STEREO_COUNT>
4

> <PUBCHEM_ATOM_UDEF_STEREO_COUNT>
2

> <PUBCHEM_BOND_DEF_STEREO_COUNT>
0

> <PUBCHEM_BOND_UDEF_STEREO_COUNT>
0

> <PUBCHEM_ISOTOPIC_ATOM_COUNT>
0

> <PUBCHEM_COMPONENT_COUNT>
1

> <PUBCHEM_CACTVS_TAUTO_COUNT>
1

> <PUBCHEM_CONFORMER_ID>
07BA3B2000000001

> <PUBCHEM_MMFF94_ENERGY>
104.5864

> <PUBCHEM_FEATURE_SELFOVERLAP>
97.473

> <PUBCHEM_SHAPE_FINGERPRINT>
10863032 1 17967802856149005731
10948715 1 18187355532664204269
121448 382 16988837311350612070
12423570 1 17979383032798103755
12654903 92 16836300684006753197
13140716 1 17830468523959598529
14142880 1 18199482123658627656
144361 1 18272364329947507083
14817 1 17825132516457027702
15881359 60 18122642796426866513
16945 1 18263628701532817089
17492 54 18196629973579720549
17980427 23 17836892673974110304
18981168 100 17316237715684126334
20691752 17 17677335974863168053
20905425 154 18192421987914257076
21296965 12 18339648944257023230
21524375 3 18411411830650874900
229495 10 15577482156607095432
23227448 37 17972035005443602380
23419403 2 17694272915974605842
23559900 14 18339641265594697664
2748010 2 18118151136972213371
3286 77 17243279527202639771
5262128 65 17842002087080479271
5845 1 17546497599792547411
70251023 43 17983866579798435687

> <PUBCHEM_SHAPE_MULTIPOLES>
442.99
4.8
2.77
1.95
1.15
0.19
0.09
-2.75
0.99
0.77
0.38
-0.31
0.96
0.36

> <PUBCHEM_SHAPE_SELFOVERLAP>
979.398

> <PUBCHEM_SHAPE_VOLUME>
238.1

> <PUBCHEM_COORDINATE_TYPE>
2
5
10