129650952
  -OEChem-05072106003D

 30 36  0     1  0  0  0  0  0999 V2000
    3.1930    0.3335   -0.3412 P   0  0  0  0  0  0  0  0  0  0  0  0
   -2.9126    0.1548   -0.5626 P   0  0  1  0  0  0  0  0  0  0  0  0
    0.0246   -2.5027   -0.3196 P   0  0  2  0  0  0  0  0  0  0  0  0
    0.6263    2.1095    0.7387 O   0  0  0  0  0  0  0  0  0  0  0  0
    1.8884   -0.6090   -0.5979 O   0  0  0  0  0  0  0  0  0  0  0  0
   -1.8955   -0.8954    0.0577 O   0  0  0  0  0  0  0  0  0  0  0  0
   -2.7245    1.1696    0.6723 O   0  0  0  0  0  0  0  0  0  0  0  0
    2.3209    1.5995   -0.7180 O   0  0  0  0  0  0  0  0  0  0  0  0
    2.9583    1.0437    1.1241 O   0  0  0  0  0  0  0  0  0  0  0  0
   -0.8558   -1.3549    1.9077 O   0  0  0  0  0  0  0  0  0  0  0  0
    1.5319   -1.2520    1.4249 O   0  0  0  0  0  0  0  0  0  0  0  0
   -1.9455    0.6536   -1.7615 O   0  0  0  0  0  0  0  0  0  0  0  0
   -1.1663    1.5789    2.4021 O   0  0  0  0  0  0  0  0  0  0  0  0
   -1.1703    2.9159   -0.4652 O   0  0  0  0  0  0  0  0  0  0  0  0
   -0.1946   -1.0814   -1.3603 O   0  0  0  0  0  0  0  0  0  0  0  0
   -0.9602   -2.5669    1.0179 O   0  0  0  0  0  0  0  0  0  0  0  0
    1.4453   -2.4480    0.5278 O   0  0  0  0  0  0  0  0  0  0  0  0
    0.2579    1.1355   -2.4100 O   0  0  0  0  0  0  0  0  0  0  0  0
    4.5036    0.2157   -1.0352 O   0  0  0  0  0  0  0  0  0  0  0  0
   -4.2875   -0.3170   -0.9070 O   0  0  0  0  0  0  0  0  0  0  0  0
   -0.0688   -3.7657   -1.1369 O   0  0  0  0  0  0  0  0  0  0  0  0
   -0.7867   -0.3449    0.9286 C   0  0  1  0  0  0  0  0  0  0  0  0
    1.0344   -0.2550    0.5283 C   0  0  2  0  0  0  0  0  0  0  0  0
   -1.3606    1.0635    1.1055 C   0  0  1  0  0  0  0  0  0  0  0  0
    1.6239    1.1671    0.5596 C   0  0  0  0  0  0  0  0  0  0  0  0
   -0.5480    1.7139   -0.0026 C   0  0  2  0  0  0  0  0  0  0  0  0
   -0.5315    0.5382   -1.3771 C   0  0  1  0  0  0  0  0  0  0  0  0
   -0.9587    2.5247    2.3182 H   0  0  0  0  0  0  0  0  0  0  0  0
   -1.7928    3.2181    0.2171 H   0  0  0  0  0  0  0  0  0  0  0  0
    0.1421    0.5772   -3.1972 H   0  0  0  0  0  0  0  0  0  0  0  0
  1  5  1  0  0  0  0
  1  8  1  0  0  0  0
  1  9  1  0  0  0  0
  1 19  2  0  0  0  0
  2  6  1  0  0  0  0
  2  7  1  0  0  0  0
  2 12  1  0  0  0  0
  2 20  2  0  0  0  0
  3 15  1  0  0  0  0
  3 16  1  0  0  0  0
  3 17  1  0  0  0  0
  3 21  2  0  0  0  0
  4 25  1  0  0  0  0
  4 26  1  0  0  0  0
  5 23  1  0  0  0  0
  6 22  1  0  0  0  0
  7 24  1  0  0  0  0
  8 25  1  0  0  0  0
  9 25  1  0  0  0  0
 10 16  1  0  0  0  0
 10 22  1  0  0  0  0
 11 17  1  0  0  0  0
 11 23  1  0  0  0  0
 12 27  1  0  0  0  0
 13 24  1  0  0  0  0
 13 28  1  0  0  0  0
 14 26  1  0  0  0  0
 14 29  1  0  0  0  0
 15 27  1  0  0  0  0
 18 27  1  0  0  0  0
 18 30  1  0  0  0  0
 22 23  1  0  0  0  0
 22 24  1  0  0  0  0
 23 25  1  0  0  0  0
 24 26  1  0  0  0  0
 26 27  1  0  0  0  0
M  END
> <PUBCHEM_COMPOUND_CID>
129650952

> <PUBCHEM_CONFORMER_RMSD>
0.6

> <PUBCHEM_CONFORMER_DIVERSEORDER>
1
2

> <PUBCHEM_MMFF94_PARTIAL_CHARGES>
30
1 1.51
10 -0.28
11 -0.28
12 -0.55
13 -0.68
14 -0.68
15 -0.55
16 -0.27
17 -0.27
18 -0.68
19 -0.7
2 1.51
20 -0.7
21 -0.7
22 0.56
23 0.56
24 0.56
25 0.77
26 0.56
27 0.84
28 0.4
29 0.4
3 1.51
30 0.4
4 -0.54
5 -0.55
6 -0.55
7 -0.55
8 -0.53
9 -0.53

> <PUBCHEM_EFFECTIVE_ROTOR_COUNT>
2.4

> <PUBCHEM_PHARMACOPHORE_FEATURES>
14
1 13 acceptor
1 13 donor
1 14 acceptor
1 14 donor
1 18 acceptor
1 18 donor
1 19 acceptor
1 20 acceptor
1 21 acceptor
1 4 acceptor
6 1 5 8 9 23 25 rings
6 4 22 23 24 25 26 rings
7 3 10 11 16 17 22 23 rings
8 2 6 7 12 22 24 26 27 rings

> <PUBCHEM_HEAVY_ATOM_COUNT>
27

> <PUBCHEM_ATOM_DEF_STEREO_COUNT>
4

> <PUBCHEM_ATOM_UDEF_STEREO_COUNT>
3

> <PUBCHEM_BOND_DEF_STEREO_COUNT>
0

> <PUBCHEM_BOND_UDEF_STEREO_COUNT>
0

> <PUBCHEM_ISOTOPIC_ATOM_COUNT>
0

> <PUBCHEM_COMPONENT_COUNT>
1

> <PUBCHEM_CACTVS_TAUTO_COUNT>
1

> <PUBCHEM_CONFORMER_ID>
07BA510800000001

> <PUBCHEM_MMFF94_ENERGY>
421.5235

> <PUBCHEM_FEATURE_SELFOVERLAP>
71.521

> <PUBCHEM_SHAPE_FINGERPRINT>
10863032 1 17917431956400747885
10948715 1 17967244312805747341
11578080 2 17620195768596163041
12011746 2 18408042926606397847
12423570 1 17386005121770453421
13140716 1 18191579972450118520
144361 1 18040717003967572424
14787075 74 17700674427506605393
14817 1 17553531149805087639
15209289 33 18202013092436232704
15881359 60 17822834476935444605
16945 1 18334289877112022457
17357779 13 17832982028715233599
17492 54 18114728439148604343
20905425 154 18195521498049177135
2334 1 17831018292542376080
23419403 2 16470875190023185072
23559900 14 18341620360928710420
238 59 17900501710726450869
2748010 2 18049161360801447216
296302 2 14201397192036843716
5845 1 17691123064516810490
81228 2 17905604759055692930

> <PUBCHEM_SHAPE_MULTIPOLES>
461.55
4.41
2.91
1.75
1.32
1.96
-0.01
-1
1.08
-0.17
0
-0.34
-0.22
-0.13

> <PUBCHEM_SHAPE_SELFOVERLAP>
1033.442

> <PUBCHEM_SHAPE_VOLUME>
245.7

> <PUBCHEM_COORDINATE_TYPE>
2
5
10