129666730
  -OEChem-05072106003D

 45 45  0     1  0  0  0  0  0999 V2000
   -1.7522   -0.8793   -0.0990 O   0  0  0  0  0  0  0  0  0  0  0  0
   -1.2533    2.5983   -1.1826 O   0  0  0  0  0  0  0  0  0  0  0  0
   -4.0317    2.5360   -0.4062 O   0  0  0  0  0  0  0  0  0  0  0  0
   -4.4883    0.7197    1.7667 O   0  0  0  0  0  0  0  0  0  0  0  0
   -0.7820   -0.5399   -2.7006 O   0  0  0  0  0  0  0  0  0  0  0  0
   -2.2193   -2.8980    1.6892 O   0  0  0  0  0  0  0  0  0  0  0  0
    2.5301   -2.1846    0.3044 O   0  0  0  0  0  0  0  0  0  0  0  0
    0.8479   -2.3566   -1.6765 O   0  0  0  0  0  0  0  0  0  0  0  0
    3.5615   -0.2128   -1.4938 O   0  0  0  0  0  0  0  0  0  0  0  0
    3.1310    0.7628    2.0147 O   0  0  0  0  0  0  0  0  0  0  0  0
    5.7718    1.6234    1.6410 O   0  0  0  0  0  0  0  0  0  0  0  0
   -1.0153    0.2889   -0.4682 C   0  0  2  0  0  0  0  0  0  0  0  0
   -1.9717    1.3942   -0.9266 C   0  0  1  0  0  0  0  0  0  0  0  0
   -3.0213    1.6900    0.1458 C   0  0  2  0  0  0  0  0  0  0  0  0
   -3.6836    0.4016    0.6339 C   0  0  1  0  0  0  0  0  0  0  0  0
   -2.6303   -0.6463    1.0051 C   0  0  1  0  0  0  0  0  0  0  0  0
   -0.0451   -0.1202   -1.5615 C   0  0  1  0  0  0  0  0  0  0  0  0
   -3.2567   -1.9882    1.3717 C   0  0  0  0  0  0  0  0  0  0  0  0
    0.8912   -1.2484   -1.1385 C   0  0  0  0  0  0  0  0  0  0  0  0
    1.8465   -0.9715    0.0181 C   0  0  2  0  0  0  0  0  0  0  0  0
    2.8459    0.1492   -0.3128 C   0  0  1  0  0  0  0  0  0  0  0  0
    3.8448    0.3968    0.8338 C   0  0  1  0  0  0  0  0  0  0  0  0
    4.8803    1.4847    0.5419 C   0  0  0  0  0  0  0  0  0  0  0  0
   -0.4433    0.6376    0.4010 H   1  0  0  0  0  0  0  0  0  0  0  0
   -2.4824    1.1161   -1.8559 H   0  0  0  0  0  0  0  0  0  0  0  0
   -2.5811    2.2461    0.9821 H   0  0  0  0  0  0  0  0  0  0  0  0
   -4.3522    0.0128   -0.1438 H   0  0  0  0  0  0  0  0  0  0  0  0
   -2.0289   -0.3102    1.8608 H   0  0  0  0  0  0  0  0  0  0  0  0
    0.5657    0.7270   -1.8854 H   0  0  0  0  0  0  0  0  0  0  0  0
   -3.8157   -2.4015    0.5255 H   0  0  0  0  0  0  0  0  0  0  0  0
   -3.9225   -1.8960    2.2351 H   0  0  0  0  0  0  0  0  0  0  0  0
    1.2560   -0.7286    0.9055 H   0  0  0  0  0  0  0  0  0  0  0  0
   -0.7711    2.8387   -0.3731 H   0  0  0  0  0  0  0  0  0  0  0  0
   -4.4389    2.0711   -1.1569 H   0  0  0  0  0  0  0  0  0  0  0  0
    2.3075    1.0824   -0.5140 H   0  0  0  0  0  0  0  0  0  0  0  0
   -3.8994    1.0286    2.4762 H   0  0  0  0  0  0  0  0  0  0  0  0
   -1.3836   -1.2512   -2.4210 H   0  0  0  0  0  0  0  0  0  0  0  0
    4.3877   -0.5287    1.0618 H   0  0  0  0  0  0  0  0  0  0  0  0
   -2.6397   -3.7451    1.9156 H   0  0  0  0  0  0  0  0  0  0  0  0
    3.1294   -2.3701   -0.4389 H   0  0  0  0  0  0  0  0  0  0  0  0
    5.4673    1.2421   -0.3490 H   0  0  0  0  0  0  0  0  0  0  0  0
    4.3865    2.4510    0.3940 H   0  0  0  0  0  0  0  0  0  0  0  0
    2.9395   -0.1880   -2.2402 H   0  0  0  0  0  0  0  0  0  0  0  0
    3.7850    0.8998    2.7213 H   0  0  0  0  0  0  0  0  0  0  0  0
    6.4029    2.3261    1.4097 H   0  0  0  0  0  0  0  0  0  0  0  0
  1 12  1  0  0  0  0
  1 16  1  0  0  0  0
  2 13  1  0  0  0  0
  2 33  1  0  0  0  0
  3 14  1  0  0  0  0
  3 34  1  0  0  0  0
  4 15  1  0  0  0  0
  4 36  1  0  0  0  0
  5 17  1  0  0  0  0
  5 37  1  0  0  0  0
  6 18  1  0  0  0  0
  6 39  1  0  0  0  0
  7 20  1  0  0  0  0
  7 40  1  0  0  0  0
  8 19  2  0  0  0  0
  9 21  1  0  0  0  0
  9 43  1  0  0  0  0
 10 22  1  0  0  0  0
 10 44  1  0  0  0  0
 11 23  1  0  0  0  0
 11 45  1  0  0  0  0
 12 13  1  0  0  0  0
 12 17  1  0  0  0  0
 12 24  1  0  0  0  0
 13 14  1  0  0  0  0
 13 25  1  0  0  0  0
 14 15  1  0  0  0  0
 14 26  1  0  0  0  0
 15 16  1  0  0  0  0
 15 27  1  0  0  0  0
 16 18  1  0  0  0  0
 16 28  1  0  0  0  0
 17 19  1  0  0  0  0
 17 29  1  0  0  0  0
 18 30  1  0  0  0  0
 18 31  1  0  0  0  0
 19 20  1  0  0  0  0
 20 21  1  0  0  0  0
 20 32  1  0  0  0  0
 21 22  1  0  0  0  0
 21 35  1  0  0  0  0
 22 23  1  0  0  0  0
 22 38  1  0  0  0  0
 23 41  1  0  0  0  0
 23 42  1  0  0  0  0
M  ISO  1  24   2
M  END
> <PUBCHEM_COMPOUND_CID>
129666730

> <PUBCHEM_CONFORMER_RMSD>
1.2

> <PUBCHEM_CONFORMER_DIVERSEORDER>
1
132
8
118
89
36
2
5
130
35
92
126
87
6
60
31
65
42
127
74
111
11
90
54
88
100
101
129
91
115
38
12
24
63
15
23
105
18
102
49
117
26
72
51
82
44
116
9
93
80
83
20
131
109
94
17
33
123
119
81
70
14
112
67
75
96
95
37
107
133
29
40
58
104
47
97
120
19
125
136
30
73
128
7
135
34
85
59
134
41
86
25
64
4
52
10
108
55
69
53
27
66
121
77
32
124
114
50
84
71
48
45
76
62
16
99
78
22
57
13
56
21
68
43
106
3
110
79
39
61
103
113
28
98
122
46

> <PUBCHEM_MMFF94_PARTIAL_CHARGES>
32
1 -0.56
10 -0.68
11 -0.68
12 0.28
13 0.28
14 0.28
15 0.28
16 0.28
17 0.34
18 0.28
19 0.45
2 -0.68
20 0.34
21 0.28
22 0.28
23 0.28
3 -0.68
33 0.4
34 0.4
36 0.4
37 0.4
39 0.4
4 -0.68
40 0.4
43 0.4
44 0.4
45 0.4
5 -0.68
6 -0.68
7 -0.68
8 -0.57
9 -0.68

> <PUBCHEM_EFFECTIVE_ROTOR_COUNT>
8.2

> <PUBCHEM_PHARMACOPHORE_FEATURES>
21
1 1 acceptor
1 10 acceptor
1 10 donor
1 11 acceptor
1 11 donor
1 2 acceptor
1 2 donor
1 3 acceptor
1 3 donor
1 4 acceptor
1 4 donor
1 5 acceptor
1 5 donor
1 6 acceptor
1 6 donor
1 7 acceptor
1 7 donor
1 8 acceptor
1 9 acceptor
1 9 donor
6 1 12 13 14 15 16 rings

> <PUBCHEM_HEAVY_ATOM_COUNT>
23

> <PUBCHEM_ATOM_DEF_STEREO_COUNT>
7

> <PUBCHEM_ATOM_UDEF_STEREO_COUNT>
2

> <PUBCHEM_BOND_DEF_STEREO_COUNT>
0

> <PUBCHEM_BOND_UDEF_STEREO_COUNT>
0

> <PUBCHEM_ISOTOPIC_ATOM_COUNT>
1

> <PUBCHEM_COMPONENT_COUNT>
1

> <PUBCHEM_CACTVS_TAUTO_COUNT>
12

> <PUBCHEM_CONFORMER_ID>
07BA8EAA00000001

> <PUBCHEM_MMFF94_ENERGY>
48.5589

> <PUBCHEM_FEATURE_SELFOVERLAP>
106.65

> <PUBCHEM_SHAPE_FINGERPRINT>
10319926 262 18187927231951349978
10366900 7 18342746169607031231
10498660 4 17418364796863648808
12553582 1 17827111625151099059
12633257 1 18114186362308934448
12670545 47 18410579482920781573
12824470 246 16299809731063888787
13083527 12 17980489172225230967
13544653 18 13695586655072622366
13583140 156 18342733009737727954
13994607 96 15267072492393574803
14081887 123 18260835899038024051
14178342 30 17967259701700332539
14289901 80 18041573472059835818
14341114 328 17676773153848501104
14713325 29 12750966601645221525
15183329 4 15913059729225472756
15342168 16 17275107193603162749
15534591 1 14692582047319969263
1813 80 15791741784072483526
18219364 16 17775001314606664218
193927 3 12901543495277862696
21033648 29 18188496748788882501
21421861 104 17462317882001048297
21475661 188 17267801866766325553
21650355 55 18113621222402064365
21756936 100 18267578186803910984
21864079 5 16916796140919724552
22907989 373 13901048088965752917
23557571 272 18263667120236916831
23559900 14 18117292353861150126
27216 239 18342730853547990217
312425 83 12103299264825094688
469060 322 18054489563911006710
474 4 15984832488587874173
49207404 50 18341901778983766646
633830 44 16916800534539178348
7097593 13 17604139325391053570
90316 7 17530683173805784053

> <PUBCHEM_SHAPE_MULTIPOLES>
408.77
9.34
2.61
1.99
7.7
0.39
0.36
-4.6
-5.96
-1.69
-0.2
0.28
0.37
2.07

> <PUBCHEM_SHAPE_SELFOVERLAP>
821.995

> <PUBCHEM_SHAPE_VOLUME>
236.6

> <PUBCHEM_COORDINATE_TYPE>
2
5
10