129666691
  -OEChem-05072106003D

 45 45  0     1  0  0  0  0  0999 V2000
   -0.7360   -0.6971   -0.6069 O   0  0  0  0  0  0  0  0  0  0  0  0
   -3.7901   -0.8519   -0.1182 O   0  0  0  0  0  0  0  0  0  0  0  0
   -1.3114   -1.3929    2.4145 O   0  0  0  0  0  0  0  0  0  0  0  0
   -1.7047    2.1868    1.3901 O   0  0  0  0  0  0  0  0  0  0  0  0
   -3.1523    2.0049   -0.8351 O   0  0  0  0  0  0  0  0  0  0  0  0
   -0.3745   -3.1313   -1.9031 O   0  0  0  0  0  0  0  0  0  0  0  0
    0.1423    3.2762   -0.1614 O   0  0  0  0  0  0  0  0  0  0  0  0
    2.0955    2.1725   -1.4846 O   0  0  0  0  0  0  0  0  0  0  0  0
    2.7519    1.4565    1.2064 O   0  0  0  0  0  0  0  0  0  0  0  0
    2.8137   -1.2079   -1.3123 O   0  0  0  0  0  0  0  0  0  0  0  0
    3.5572   -1.9720    1.3019 O   0  0  0  0  0  0  0  0  0  0  0  0
   -1.6435    0.3049   -0.1083 C   0  0  1  0  0  0  0  0  0  0  0  0
   -2.7036   -0.4480    0.7099 C   0  0  2  0  0  0  0  0  0  0  0  0
   -1.9708   -1.6865    1.1870 C   0  0  1  0  0  0  0  0  0  0  0  0
   -0.9366   -1.9385    0.0934 C   0  0  1  0  0  0  0  0  0  0  0  0
   -0.8237    1.2686    0.7595 C   0  0  1  0  0  0  0  0  0  0  0  0
   -2.2097    1.0641   -1.3094 C   0  0  0  0  0  0  0  0  0  0  0  0
   -1.3909   -2.9739   -0.9266 C   0  0  0  0  0  0  0  0  0  0  0  0
    0.2161    2.0522   -0.0360 C   0  0  0  0  0  0  0  0  0  0  0  0
    1.3219    1.2559   -0.7217 C   0  0  2  0  0  0  0  0  0  0  0  0
    2.2077    0.5081    0.2887 C   0  0  1  0  0  0  0  0  0  0  0  0
    3.3563   -0.2562   -0.3969 C   0  0  1  0  0  0  0  0  0  0  0  0
    4.2852   -0.9946    0.5692 C   0  0  0  0  0  0  0  0  0  0  0  0
   -3.1182    0.1499    1.5273 H   0  0  0  0  0  0  0  0  0  0  0  0
   -2.6258   -2.5469    1.3578 H   0  0  0  0  0  0  0  0  0  0  0  0
    0.0368   -2.2306    0.5035 H   0  0  0  0  0  0  0  0  0  0  0  0
   -0.2904    0.7398    1.5541 H   0  0  0  0  0  0  0  0  0  0  0  0
   -2.7063    0.3795   -2.0069 H   0  0  0  0  0  0  0  0  0  0  0  0
   -1.4416    1.5762   -1.8972 H   0  0  0  0  0  0  0  0  0  0  0  0
   -2.2983   -2.6527   -1.4470 H   0  0  0  0  0  0  0  0  0  0  0  0
   -1.5711   -3.9416   -0.4484 H   0  0  0  0  0  0  0  0  0  0  0  0
   -4.4091   -1.3561    0.4369 H   0  0  0  0  0  0  0  0  0  0  0  0
    0.8907    0.5824   -1.4605 H   0  0  0  0  0  0  0  0  0  0  0  0
   -0.8086   -2.1846    2.6716 H   0  0  0  0  0  0  0  0  0  0  0  0
   -1.1811    2.7084    2.0222 H   0  0  0  0  0  0  0  0  0  0  0  0
    1.6027   -0.2030    0.8604 H   0  0  0  0  0  0  0  0  0  0  0  0
   -3.5114    2.4680   -1.6110 H   0  0  0  0  0  0  0  0  0  0  0  0
    3.9713    0.4483   -0.9698 H   0  0  0  0  0  0  0  0  0  0  0  0
   -0.6876   -3.7984   -2.5376 H   0  0  0  0  0  0  0  0  0  0  0  0
    2.5818    2.7403   -0.8623 H   0  0  0  0  0  0  0  0  0  0  0  0
    5.0699   -1.5188    0.0136 H   0  0  0  0  0  0  0  0  0  0  0  0
    4.7548   -0.3025    1.2749 H   0  0  0  0  0  0  0  0  0  0  0  0
    2.0234    1.7981    1.7516 H   0  0  0  0  0  0  0  0  0  0  0  0
    3.5584   -1.6370   -1.7671 H   0  0  0  0  0  0  0  0  0  0  0  0
    4.1892   -2.4136    1.8945 H   0  0  0  0  0  0  0  0  0  0  0  0
  1 12  1  0  0  0  0
  1 15  1  0  0  0  0
  2 13  1  0  0  0  0
  2 32  1  0  0  0  0
  3 14  1  0  0  0  0
  3 34  1  0  0  0  0
  4 16  1  0  0  0  0
  4 35  1  0  0  0  0
  5 17  1  0  0  0  0
  5 37  1  0  0  0  0
  6 18  1  0  0  0  0
  6 39  1  0  0  0  0
  7 19  2  0  0  0  0
  8 20  1  0  0  0  0
  8 40  1  0  0  0  0
  9 21  1  0  0  0  0
  9 43  1  0  0  0  0
 10 22  1  0  0  0  0
 10 44  1  0  0  0  0
 11 23  1  0  0  0  0
 11 45  1  0  0  0  0
 12 13  1  0  0  0  0
 12 16  1  0  0  0  0
 12 17  1  0  0  0  0
 13 14  1  0  0  0  0
 13 24  1  0  0  0  0
 14 15  1  0  0  0  0
 14 25  1  0  0  0  0
 15 18  1  0  0  0  0
 15 26  1  0  0  0  0
 16 19  1  0  0  0  0
 16 27  1  0  0  0  0
 17 28  1  0  0  0  0
 17 29  1  0  0  0  0
 18 30  1  0  0  0  0
 18 31  1  0  0  0  0
 19 20  1  0  0  0  0
 20 21  1  0  0  0  0
 20 33  1  0  0  0  0
 21 22  1  0  0  0  0
 21 36  1  0  0  0  0
 22 23  1  0  0  0  0
 22 38  1  0  0  0  0
 23 41  1  0  0  0  0
 23 42  1  0  0  0  0
M  END
> <PUBCHEM_COMPOUND_CID>
129666691

> <PUBCHEM_CONFORMER_RMSD>
1

> <PUBCHEM_CONFORMER_DIVERSEORDER>
1
27
229
72
130
68
149
148
182
49
119
159
84
90
26
135
37
233
109
176
44
187
236
219
95
60
208
117
196
46
55
213
28
144
36
70
20
31
154
103
175
147
75
38
113
89
152
204
82
110
197
9
15
211
106
139
155
73
216
71
112
7
69
102
168
225
87
24
86
111
158
120
104
163
78
171
145
25
156
22
16
125
61
41
189
56
188
134
42
94
53
123
162
143
100
167
202
157
214
43
13
52
65
191
215
184
128
81
124
3
21
54
238
96
180
183
14
200
194
137
62
186
140
190
198
178
63
172
74
222
161
131
210
80
107
8
18
199
224
79
206
105
195
4
173
127
45
221
170
48
66
118
10
141
32
230
227
234
181
223
59
129
151
207
92
226
97
30
83
85
19
57
150
114
237
2
88
6
35
138
136
185
153
231
146
228
177
17
108
116
165
34
91
142
164
205
47
93
121
101
203
133
12
160
40
217
98
201
23
126
50
51
169
64
67
218
193
212
33
115
174
5
220
122
99
209
232
77
192
132
179
29
235
166
39
58
11
76

> <PUBCHEM_MMFF94_PARTIAL_CHARGES>
32
1 -0.56
10 -0.68
11 -0.68
12 0.28
13 0.28
14 0.28
15 0.28
16 0.34
17 0.28
18 0.28
19 0.45
2 -0.68
20 0.34
21 0.28
22 0.28
23 0.28
3 -0.68
32 0.4
34 0.4
35 0.4
37 0.4
39 0.4
4 -0.68
40 0.4
43 0.4
44 0.4
45 0.4
5 -0.68
6 -0.68
7 -0.57
8 -0.68
9 -0.68

> <PUBCHEM_EFFECTIVE_ROTOR_COUNT>
9

> <PUBCHEM_PHARMACOPHORE_FEATURES>
21
1 1 acceptor
1 10 acceptor
1 10 donor
1 11 acceptor
1 11 donor
1 2 acceptor
1 2 donor
1 3 acceptor
1 3 donor
1 4 acceptor
1 4 donor
1 5 acceptor
1 5 donor
1 6 acceptor
1 6 donor
1 7 acceptor
1 8 acceptor
1 8 donor
1 9 acceptor
1 9 donor
5 1 12 13 14 15 rings

> <PUBCHEM_HEAVY_ATOM_COUNT>
23

> <PUBCHEM_ATOM_DEF_STEREO_COUNT>
6

> <PUBCHEM_ATOM_UDEF_STEREO_COUNT>
2

> <PUBCHEM_BOND_DEF_STEREO_COUNT>
0

> <PUBCHEM_BOND_UDEF_STEREO_COUNT>
0

> <PUBCHEM_ISOTOPIC_ATOM_COUNT>
0

> <PUBCHEM_COMPONENT_COUNT>
1

> <PUBCHEM_CACTVS_TAUTO_COUNT>
11

> <PUBCHEM_CONFORMER_ID>
07BA8E8300000001

> <PUBCHEM_MMFF94_ENERGY>
59.5914

> <PUBCHEM_FEATURE_SELFOVERLAP>
106.654

> <PUBCHEM_SHAPE_FINGERPRINT>
10366900 7 17274808161190205232
11321824 6 18341890826849135310
11578080 2 17629189700643867857
12507560 14 18271812366926506773
12553582 1 17977672239976103366
12592029 89 17751643148227173849
13140716 1 18338804411694707561
13544592 271 18195811773646148287
14081887 123 18129083697557761680
14251757 17 17613670042409987831
16752209 62 18335132094681957345
16945 1 18191587656352189461
18981168 100 9799429827063900656
20645476 183 17386288696774999904
20905425 154 17687175396576324526
21731516 1 18122351434646554062
2334 1 18411990164813244677
23419403 2 16247355359659542544
23559900 14 18336816521243339064
23728640 28 18342448206267059170
2748010 2 18340779164637364693
34934 24 18267588103171305876
465052 167 18115889532318118299
59755656 215 18119522142764275085
598444 67 17967537899896161939
81228 2 18124319307326897104
90525 40 18410584958914341758

> <PUBCHEM_SHAPE_MULTIPOLES>
408.77
5.75
3.46
1.58
4.25
0.16
-0.21
1.5
-0.59
-0.63
0.76
-0.19
0.56
-0.2

> <PUBCHEM_SHAPE_SELFOVERLAP>
831.855

> <PUBCHEM_SHAPE_VOLUME>
235.3

> <PUBCHEM_COORDINATE_TYPE>
2
5
10