129638929
  -OEChem-05072106003D

 30 30  0     1  0  0  0  0  0999 V2000
    0.0415   -0.8235    0.3860 O   0  0  0  0  0  0  0  0  0  0  0  0
   -2.2336    0.5405    1.7086 O   0  0  0  0  0  0  0  0  0  0  0  0
   -1.1930    2.0136   -1.4492 O   0  0  0  0  0  0  0  0  0  0  0  0
   -1.3119   -0.8490   -1.5568 O   0  0  0  0  0  0  0  0  0  0  0  0
    1.0949    2.6665   -0.0800 O   0  0  0  0  0  0  0  0  0  0  0  0
    2.1721    0.1106    0.5522 O   0  0  0  0  0  0  0  0  0  0  0  0
   -3.3580   -1.9778   -0.0660 O   0  0  0  0  0  0  0  0  0  0  0  0
    2.7436   -1.4605   -1.0422 O   0  0  0  0  0  0  0  0  0  0  0  0
   -1.9870    0.5415    0.3032 C   0  0  1  0  0  0  0  0  0  0  0  0
   -1.1442    1.7751   -0.0424 C   0  0  1  0  0  0  0  0  0  0  0  0
   -1.2962   -0.7726   -0.1284 C   0  0  2  0  0  0  0  0  0  0  0  0
    0.3043    1.5917    0.4186 C   0  0  1  0  0  0  0  0  0  0  0  0
    0.8794    0.2511   -0.0388 C   0  0  2  0  0  0  0  0  0  0  0  0
   -2.0318   -1.9968    0.4242 C   0  0  0  0  0  0  0  0  0  0  0  0
    3.0041   -0.7841   -0.0565 C   0  0  0  0  0  0  0  0  0  0  0  0
    4.3157   -0.8262    0.6675 C   0  0  0  0  0  0  0  0  0  0  0  0
   -2.9572    0.6201   -0.2034 H   0  0  0  0  0  0  0  0  0  0  0  0
   -1.5520    2.6723    0.4387 H   0  0  0  0  0  0  0  0  0  0  0  0
    0.3441    1.6369    1.5145 H   0  0  0  0  0  0  0  0  0  0  0  0
    0.9816    0.2476   -1.1323 H   0  0  0  0  0  0  0  0  0  0  0  0
   -2.0398   -2.0129    1.5192 H   0  0  0  0  0  0  0  0  0  0  0  0
   -1.5512   -2.9215    0.0847 H   0  0  0  0  0  0  0  0  0  0  0  0
   -2.7125    1.3589    1.9240 H   0  0  0  0  0  0  0  0  0  0  0  0
   -2.1242    2.1551   -1.6905 H   0  0  0  0  0  0  0  0  0  0  0  0
   -1.2515   -1.7838   -1.8153 H   0  0  0  0  0  0  0  0  0  0  0  0
    0.7010    3.4949    0.2429 H   0  0  0  0  0  0  0  0  0  0  0  0
   -3.8064   -2.7646    0.2880 H   0  0  0  0  0  0  0  0  0  0  0  0
    4.7860    0.1600    0.6400 H   0  0  0  0  0  0  0  0  0  0  0  0
    4.9793   -1.5424    0.1745 H   0  0  0  0  0  0  0  0  0  0  0  0
    4.1590   -1.1499    1.6995 H   0  0  0  0  0  0  0  0  0  0  0  0
  1 11  1  0  0  0  0
  1 13  1  0  0  0  0
  2  9  1  0  0  0  0
  2 23  1  0  0  0  0
  3 10  1  0  0  0  0
  3 24  1  0  0  0  0
  4 11  1  0  0  0  0
  4 25  1  0  0  0  0
  5 12  1  0  0  0  0
  5 26  1  0  0  0  0
  6 13  1  0  0  0  0
  6 15  1  0  0  0  0
  7 14  1  0  0  0  0
  7 27  1  0  0  0  0
  8 15  2  0  0  0  0
  9 10  1  0  0  0  0
  9 11  1  0  0  0  0
  9 17  1  0  0  0  0
 10 12  1  0  0  0  0
 10 18  1  0  0  0  0
 11 14  1  0  0  0  0
 12 13  1  0  0  0  0
 12 19  1  0  0  0  0
 13 20  1  0  0  0  0
 14 21  1  0  0  0  0
 14 22  1  0  0  0  0
 15 16  1  0  0  0  0
 16 28  1  0  0  0  0
 16 29  1  0  0  0  0
 16 30  1  0  0  0  0
M  END
> <PUBCHEM_COMPOUND_CID>
129638929

> <PUBCHEM_CONFORMER_RMSD>
0.6

> <PUBCHEM_CONFORMER_DIVERSEORDER>
2
46
20
42
16
31
30
43
22
1
32
19
23
50
28
21
27
51
41
3
12
40
6
39
26
35
38
4
29
15
17
11
36
45
37
10
8
5
7
34
9
14
49
25
48
44
33
24
47
13
18

> <PUBCHEM_MMFF94_PARTIAL_CHARGES>
21
1 -0.56
10 0.28
11 0.56
12 0.28
13 0.56
14 0.28
15 0.66
16 0.06
2 -0.68
23 0.4
24 0.4
25 0.4
26 0.4
27 0.4
3 -0.68
4 -0.68
5 -0.68
6 -0.43
7 -0.68
8 -0.57
9 0.28

> <PUBCHEM_EFFECTIVE_ROTOR_COUNT>
4.2

> <PUBCHEM_PHARMACOPHORE_FEATURES>
13
1 1 acceptor
1 2 acceptor
1 2 donor
1 3 acceptor
1 3 donor
1 4 acceptor
1 4 donor
1 5 acceptor
1 5 donor
1 7 acceptor
1 7 donor
1 8 acceptor
6 1 9 10 11 12 13 rings

> <PUBCHEM_HEAVY_ATOM_COUNT>
16

> <PUBCHEM_ATOM_DEF_STEREO_COUNT>
4

> <PUBCHEM_ATOM_UDEF_STEREO_COUNT>
1

> <PUBCHEM_BOND_DEF_STEREO_COUNT>
0

> <PUBCHEM_BOND_UDEF_STEREO_COUNT>
0

> <PUBCHEM_ISOTOPIC_ATOM_COUNT>
0

> <PUBCHEM_COMPONENT_COUNT>
1

> <PUBCHEM_CACTVS_TAUTO_COUNT>
1

> <PUBCHEM_CONFORMER_ID>
07BA221100000002

> <PUBCHEM_MMFF94_ENERGY>
38.7143

> <PUBCHEM_FEATURE_SELFOVERLAP>
66.04

> <PUBCHEM_SHAPE_FINGERPRINT>
10989021 7 18338796839730239208
11132069 177 18340493270091885619
13024252 1 17095809810860111569
14817 1 18197801923999446637
15001771 113 18340211898310395585
16945 1 18269010720920140529
19868273 325 18337108977839164308
20645476 183 17679873595912138332
20645477 70 17977092789249733727
20871998 184 18130786733188634254
20871998 22 18265329680269974618
21296965 67 18410287051340151954
21501502 16 18339089296859496800
23402539 116 18198326373797441453
23557571 272 18342742871573125860
23559900 14 18124870163311542554
241688 4 18335136539883672065
2748010 2 18191292974176892421
598444 67 17695087503714087862
7364860 26 18054511575850390224
81228 2 18336834103973889354

> <PUBCHEM_SHAPE_MULTIPOLES>
282.32
5.16
2.42
1.1
5.07
0.77
-0.12
-3.12
0.73
-1.1
-0.29
-0.36
0.07
0.17

> <PUBCHEM_SHAPE_SELFOVERLAP>
571.276

> <PUBCHEM_SHAPE_VOLUME>
161.6

> <PUBCHEM_COORDINATE_TYPE>
2
5
10