129670509
  -OEChem-05072106003D

 29 28  0     1  0  0  0  0  0999 V2000
   -2.4724    0.9307    0.0649 P   0  0  0  0  0  0  0  0  0  0  0  0
   -1.1493    0.1361    0.5421 O   0  0  0  0  0  0  0  0  0  0  0  0
    1.2766   -2.1639   -0.9776 O   0  0  0  0  0  0  0  0  0  0  0  0
    1.0590    0.4503   -2.2922 O   0  0  0  0  0  0  0  0  0  0  0  0
    0.2351   -3.7942    1.0236 O   0  0  0  0  0  0  0  0  0  0  0  0
    3.0271    0.9201   -0.6074 O   0  0  0  0  0  0  0  0  0  0  0  0
   -3.3039    1.1527    1.4340 O   0  0  0  0  0  0  0  0  0  0  0  0
   -3.3173   -0.2152   -0.7018 O   0  0  0  0  0  0  0  0  0  0  0  0
    2.9273    1.7167    1.9339 O   0  0  0  0  0  0  0  0  0  0  0  0
   -2.2148    2.1723   -0.7379 O   0  0  0  0  0  0  0  0  0  0  0  0
   -0.2597   -0.3537   -0.4570 C   0  0  2  0  0  0  0  0  0  0  0  0
    0.4720   -1.6060    0.0606 C   0  0  1  0  0  0  0  0  0  0  0  0
    0.6459    0.7761   -0.9708 C   0  0  1  0  0  0  0  0  0  0  0  0
   -0.5064   -2.6835    0.5293 C   0  0  0  0  0  0  0  0  0  0  0  0
    1.8961    1.0475   -0.1357 C   0  0  0  0  0  0  0  0  0  0  0  0
    1.6846    1.5140    1.2919 C   0  0  0  0  0  0  0  0  0  0  0  0
   -0.8660   -0.6848   -1.3118 H   0  0  0  0  0  0  0  0  0  0  0  0
    1.1371   -1.3589    0.8945 H   0  0  0  0  0  0  0  0  0  0  0  0
    0.1186    1.7288   -1.0392 H   0  0  0  0  0  0  0  0  0  0  0  0
   -1.1538   -2.3196    1.3326 H   0  0  0  0  0  0  0  0  0  0  0  0
   -1.1226   -3.0397   -0.3028 H   0  0  0  0  0  0  0  0  0  0  0  0
    1.7149   -2.9530   -0.6158 H   0  0  0  0  0  0  0  0  0  0  0  0
    1.1363    2.4600    1.2746 H   0  0  0  0  0  0  0  0  0  0  0  0
    1.1249    0.7647    1.8545 H   0  0  0  0  0  0  0  0  0  0  0  0
    1.5229   -0.4037   -2.2603 H   0  0  0  0  0  0  0  0  0  0  0  0
   -0.4104   -4.4634    1.3082 H   0  0  0  0  0  0  0  0  0  0  0  0
   -4.1327    1.6767    1.4061 H   0  0  0  0  0  0  0  0  0  0  0  0
   -4.1381    0.0374   -1.1756 H   0  0  0  0  0  0  0  0  0  0  0  0
    2.7382    2.0528    2.8265 H   0  0  0  0  0  0  0  0  0  0  0  0
  1  2  1  0  0  0  0
  1  7  1  0  0  0  0
  1  8  1  0  0  0  0
  1 10  2  0  0  0  0
  2 11  1  0  0  0  0
  3 12  1  0  0  0  0
  3 22  1  0  0  0  0
  4 13  1  0  0  0  0
  4 25  1  0  0  0  0
  5 14  1  0  0  0  0
  5 26  1  0  0  0  0
  6 15  2  0  0  0  0
  7 27  1  0  0  0  0
  8 28  1  0  0  0  0
  9 16  1  0  0  0  0
  9 29  1  0  0  0  0
 11 12  1  0  0  0  0
 11 13  1  0  0  0  0
 11 17  1  0  0  0  0
 12 14  1  0  0  0  0
 12 18  1  0  0  0  0
 13 15  1  0  0  0  0
 13 19  1  0  0  0  0
 14 20  1  0  0  0  0
 14 21  1  0  0  0  0
 15 16  1  0  0  0  0
 16 23  1  0  0  0  0
 16 24  1  0  0  0  0
M  END
> <PUBCHEM_COMPOUND_CID>
129670509

> <PUBCHEM_CONFORMER_RMSD>
0.8

> <PUBCHEM_CONFORMER_DIVERSEORDER>
1
84
82
33
86
44
35
29
85
8
65
71
74
13
73
76
21
64
11
10
77
57
88
23
51
87
58
69
90
80
20
28
36
55
15
48
79
30
89
54
3
78
14
56
52
67
50
91
81
68
70
34
47
40
18
53
5
17
45
92
41
83
61
4
39
66
24
19
46
62
75
37
60
27
22
72
9
2
16
25
12
59
43
31
38
49
6
7
32
26
63
42

> <PUBCHEM_MMFF94_PARTIAL_CHARGES>
22
1 1.51
10 -0.7
11 0.28
12 0.28
13 0.34
14 0.28
15 0.45
16 0.34
2 -0.55
22 0.4
25 0.4
26 0.4
27 0.5
28 0.5
29 0.4
3 -0.68
4 -0.68
5 -0.68
6 -0.57
7 -0.77
8 -0.77
9 -0.68

> <PUBCHEM_EFFECTIVE_ROTOR_COUNT>
7

> <PUBCHEM_PHARMACOPHORE_FEATURES>
13
1 10 acceptor
1 3 acceptor
1 3 donor
1 4 acceptor
1 4 donor
1 5 acceptor
1 5 donor
1 6 acceptor
1 7 acceptor
1 8 acceptor
1 9 acceptor
1 9 donor
4 1 7 8 10 anion

> <PUBCHEM_HEAVY_ATOM_COUNT>
16

> <PUBCHEM_ATOM_DEF_STEREO_COUNT>
3

> <PUBCHEM_ATOM_UDEF_STEREO_COUNT>
0

> <PUBCHEM_BOND_DEF_STEREO_COUNT>
0

> <PUBCHEM_BOND_UDEF_STEREO_COUNT>
0

> <PUBCHEM_ISOTOPIC_ATOM_COUNT>
0

> <PUBCHEM_COMPONENT_COUNT>
1

> <PUBCHEM_CACTVS_TAUTO_COUNT>
6

> <PUBCHEM_CONFORMER_ID>
07BA9D6D00000001

> <PUBCHEM_MMFF94_ENERGY>
-7.978

> <PUBCHEM_FEATURE_SELFOVERLAP>
66.044

> <PUBCHEM_SHAPE_FINGERPRINT>
11680611 10 17535743328274703832
12423570 1 16962166547636599958
13132413 78 17476650780130421980
13898156 1 17317327546640330828
14817 1 17979353389107666118
15775835 57 18271537411578575069
15852999 172 18337382854850092399
16945 1 18116421725451381280
18410436 195 17474379180464410375
20388701 513 17691686005706373322
20711985 344 17543380561589799070
21061003 4 17761472721791538162
21524375 3 18342734134987341910
23419403 2 17054476025003644380
23526113 38 17844833497695659652
23598294 1 17682424763346372147
2748010 2 18189924017897556331
305870 269 18336261232862402237
3071541 236 18119235418577535299
7364860 26 18127691526489170663
81228 2 17907014337109652419

> <PUBCHEM_SHAPE_MULTIPOLES>
280.3
4.2
3.19
1.57
1.54
3.81
-0.07
-3.26
0.92
0
1.07
-0.72
-0.49
0.53

> <PUBCHEM_SHAPE_SELFOVERLAP>
528.208

> <PUBCHEM_SHAPE_VOLUME>
173.8

> <PUBCHEM_COORDINATE_TYPE>
2
5
10