129670518
  -OEChem-05072106003D

 32 31  0     1  0  0  0  0  0999 V2000
    3.8180    0.7805   -0.0815 P   0  0  0  0  0  0  0  0  0  0  0  0
   -0.5091   -0.5047   -1.5976 O   0  0  0  0  0  0  0  0  0  0  0  0
    0.5913   -1.4460    1.7712 O   0  0  0  0  0  0  0  0  0  0  0  0
   -2.2086   -2.2490   -0.0963 O   0  0  0  0  0  0  0  0  0  0  0  0
    2.3608    0.2058    0.3181 O   0  0  0  0  0  0  0  0  0  0  0  0
   -4.0067    2.1441   -0.5116 O   0  0  0  0  0  0  0  0  0  0  0  0
   -3.9090   -0.4659   -0.9406 O   0  0  0  0  0  0  0  0  0  0  0  0
    3.8665    0.6225   -1.6902 O   0  0  0  0  0  0  0  0  0  0  0  0
    4.8149   -0.3826    0.4367 O   0  0  0  0  0  0  0  0  0  0  0  0
    4.1238    2.1550    0.4377 O   0  0  0  0  0  0  0  0  0  0  0  0
   -0.5126   -0.5039   -0.1702 C   0  0  2  0  0  0  0  0  0  0  0  0
    0.5908   -1.4485    0.3436 C   0  0  1  0  0  0  0  0  0  0  0  0
   -1.9098   -0.9222    0.3171 C   0  0  1  0  0  0  0  0  0  0  0  0
    1.9987   -1.0916   -0.1377 C   0  0  0  0  0  0  0  0  0  0  0  0
   -3.0051   -0.0150   -0.2342 C   0  0  0  0  0  0  0  0  0  0  0  0
   -2.9687    1.4558    0.1707 C   0  0  2  0  0  0  0  0  0  0  0  0
   -3.1352    1.6656    1.6648 C   0  0  0  0  0  0  0  0  0  0  0  0
   -0.2936    0.5144    0.1697 H   0  0  0  0  0  0  0  0  0  0  0  0
    0.3786   -2.4714    0.0097 H   0  0  0  0  0  0  0  0  0  0  0  0
   -1.9698   -0.9098    1.4091 H   0  0  0  0  0  0  0  0  0  0  0  0
    2.7153   -1.8126    0.2691 H   0  0  0  0  0  0  0  0  0  0  0  0
    2.0499   -1.1265   -1.2302 H   0  0  0  0  0  0  0  0  0  0  0  0
   -2.0248    1.8863   -0.1761 H   0  0  0  0  0  0  0  0  0  0  0  0
   -1.0806    0.2214   -1.8989 H   0  0  0  0  0  0  0  0  0  0  0  0
    1.2592   -2.0879    2.0668 H   0  0  0  0  0  0  0  0  0  0  0  0
   -2.0736   -2.2976   -1.0583 H   0  0  0  0  0  0  0  0  0  0  0  0
   -4.0569    1.1935    2.0228 H   0  0  0  0  0  0  0  0  0  0  0  0
   -3.2103    2.7324    1.9011 H   0  0  0  0  0  0  0  0  0  0  0  0
   -2.2971    1.2458    2.2284 H   0  0  0  0  0  0  0  0  0  0  0  0
   -3.8643    3.0969   -0.3785 H   0  0  0  0  0  0  0  0  0  0  0  0
    4.6441    0.9685   -2.1777 H   0  0  0  0  0  0  0  0  0  0  0  0
    5.7832   -0.2321    0.3926 H   0  0  0  0  0  0  0  0  0  0  0  0
  1  5  1  0  0  0  0
  1  8  1  0  0  0  0
  1  9  1  0  0  0  0
  1 10  2  0  0  0  0
  2 11  1  0  0  0  0
  2 24  1  0  0  0  0
  3 12  1  0  0  0  0
  3 25  1  0  0  0  0
  4 13  1  0  0  0  0
  4 26  1  0  0  0  0
  5 14  1  0  0  0  0
  6 16  1  0  0  0  0
  6 30  1  0  0  0  0
  7 15  2  0  0  0  0
  8 31  1  0  0  0  0
  9 32  1  0  0  0  0
 11 12  1  0  0  0  0
 11 13  1  0  0  0  0
 11 18  1  0  0  0  0
 12 14  1  0  0  0  0
 12 19  1  0  0  0  0
 13 15  1  0  0  0  0
 13 20  1  0  0  0  0
 14 21  1  0  0  0  0
 14 22  1  0  0  0  0
 15 16  1  0  0  0  0
 16 17  1  0  0  0  0
 16 23  1  0  0  0  0
 17 27  1  0  0  0  0
 17 28  1  0  0  0  0
 17 29  1  0  0  0  0
M  END
> <PUBCHEM_COMPOUND_CID>
129670518

> <PUBCHEM_CONFORMER_RMSD>
0.8

> <PUBCHEM_CONFORMER_DIVERSEORDER>
1
50
62
198
20
173
124
201
208
99
40
8
232
165
46
91
212
168
147
196
189
231
229
204
112
156
233
38
169
125
211
75
102
49
39
11
126
67
80
16
90
59
181
48
171
176
199
69
177
110
24
190
200
137
127
105
87
29
142
26
89
220
55
136
130
18
19
78
151
54
95
238
141
88
5
148
207
98
17
227
79
113
66
35
31
93
106
161
210
223
128
52
63
12
241
10
172
222
103
164
170
25
85
219
179
134
186
145
226
22
195
215
230
118
178
45
123
65
188
214
56
94
57
203
32
140
194
234
187
235
15
23
107
6
152
109
73
154
116
216
2
4
236
82
68
111
108
139
162
51
84
193
72
43
209
225
160
97
100
36
217
157
228
144
96
197
33
60
76
101
183
153
86
3
70
175
120
206
159
14
114
42
9
202
61
184
47
92
224
240
149
122
180
115
13
30
174
185
58
104
218
44
41
64
135
221
83
163
117
166
239
7
81
150
34
143
237
146
121
132
131
27
158
21
182
28
155
192
129
37
71
74
133
191
205
119
77
138
53
213
167

> <PUBCHEM_MMFF94_PARTIAL_CHARGES>
22
1 1.51
10 -0.7
11 0.28
12 0.28
13 0.34
14 0.28
15 0.45
16 0.34
2 -0.68
24 0.4
25 0.4
26 0.4
3 -0.68
30 0.4
31 0.5
32 0.5
4 -0.68
5 -0.55
6 -0.68
7 -0.57
8 -0.77
9 -0.77

> <PUBCHEM_EFFECTIVE_ROTOR_COUNT>
7

> <PUBCHEM_PHARMACOPHORE_FEATURES>
13
1 10 acceptor
1 2 acceptor
1 2 donor
1 3 acceptor
1 3 donor
1 4 acceptor
1 4 donor
1 6 acceptor
1 6 donor
1 7 acceptor
1 8 acceptor
1 9 acceptor
4 1 8 9 10 anion

> <PUBCHEM_HEAVY_ATOM_COUNT>
17

> <PUBCHEM_ATOM_DEF_STEREO_COUNT>
3

> <PUBCHEM_ATOM_UDEF_STEREO_COUNT>
1

> <PUBCHEM_BOND_DEF_STEREO_COUNT>
0

> <PUBCHEM_BOND_UDEF_STEREO_COUNT>
0

> <PUBCHEM_ISOTOPIC_ATOM_COUNT>
0

> <PUBCHEM_COMPONENT_COUNT>
1

> <PUBCHEM_CACTVS_TAUTO_COUNT>
11

> <PUBCHEM_CONFORMER_ID>
07BA9D7600000001

> <PUBCHEM_MMFF94_ENERGY>
-7.3946

> <PUBCHEM_FEATURE_SELFOVERLAP>
66.04

> <PUBCHEM_SHAPE_FINGERPRINT>
10498660 4 18341890758182698129
11132069 177 17749383806281806382
11543360 7 17632294622459004134
11552529 35 16226910963037958304
12006461 19 9151174255300649216
12173636 292 18411415154507422886
122479 349 18260270780432131818
12346645 44 18333445443491813499
12491281 212 18411428288691201387
13583140 156 12757429531056813022
14123255 52 18336826390402691977
14123260 362 18334304174994736845
14178342 30 16371585691327068481
1420 369 8934702401877342813
14251710 61 9223226364539077436
14251764 38 18059569256582738024
15209294 21 18259701203233331420
15239191 94 10735881659847513348
15342816 4 12103850055652240508
15375462 189 11819576812668012385
1741750 31 18342743991979633747
17834072 32 18269275656141831289
18186145 218 17917163779085968834
19107657 9 18041287633755061836
193927 3 9799402356157910069
201361 129 18262235508621018186
20300324 65 18131346440689491317
20645477 56 18340497707051578015
20671657 53 12895062986143245739
21524375 3 18333446547625560122
232386 152 10953752079324505947
235170 7 16487264287135609252
23557571 272 18059298772410941279
23559900 14 18057039116997024734
27216 239 18260555511173557057
4028521 119 18342737412068734593
474 4 17822013116143099030
633830 44 18040716970172641766
76465 3 11311777228983333300

> <PUBCHEM_SHAPE_MULTIPOLES>
300.88
8.98
2.11
1.27
5.66
0.46
0.06
5
-0.83
-0.94
0.38
-0.1
0.06
-0.55

> <PUBCHEM_SHAPE_SELFOVERLAP>
568.736

> <PUBCHEM_SHAPE_VOLUME>
186.6

> <PUBCHEM_COORDINATE_TYPE>
2
5
10