129630552
  -OEChem-05072106003D

 26 28  0     1  0  0  0  0  0999 V2000
    2.5649   -0.5220    0.3046 P   0  0  0  0  0  0  0  0  0  0  0  0
    2.1317    1.0477    0.2976 O   0  0  0  0  0  0  0  0  0  0  0  0
    1.1753   -1.1665    0.8095 O   0  0  0  0  0  0  0  0  0  0  0  0
    1.9392   -1.0169   -1.1052 O   0  0  0  0  0  0  0  0  0  0  0  0
   -0.5611   -0.9746   -0.9695 O   0  0  0  0  0  0  0  0  0  0  0  0
    0.8294    1.5589   -1.6075 O   0  0  0  0  0  0  0  0  0  0  0  0
   -0.2373    2.8982    0.6813 O   0  0  0  0  0  0  0  0  0  0  0  0
   -2.6919    1.4534    0.8554 O   0  0  0  0  0  0  0  0  0  0  0  0
   -2.8759   -0.7352   -1.1271 O   0  0  0  0  0  0  0  0  0  0  0  0
    3.8674   -1.0399    0.8032 O   0  0  0  0  0  0  0  0  0  0  0  0
   -2.0351   -2.6718    0.6036 O   0  0  0  0  0  0  0  0  0  0  0  0
    0.8377    0.9798   -0.3109 C   0  0  1  0  0  0  0  0  0  0  0  0
    0.7013   -0.5439   -0.4506 C   0  0  0  0  0  0  0  0  0  0  0  0
   -0.2993    1.4767    0.5732 C   0  0  2  0  0  0  0  0  0  0  0  0
   -1.6482    1.0463   -0.0296 C   0  0  1  0  0  0  0  0  0  0  0  0
   -1.7328   -0.4817   -0.2980 C   0  0  2  0  0  0  0  0  0  0  0  0
   -1.9652   -1.3084    0.9702 C   0  0  0  0  0  0  0  0  0  0  0  0
   -0.2058    1.0924    1.5959 H   0  0  0  0  0  0  0  0  0  0  0  0
   -1.8126    1.5947   -0.9660 H   0  0  0  0  0  0  0  0  0  0  0  0
   -2.9164   -1.0483    1.4464 H   0  0  0  0  0  0  0  0  0  0  0  0
   -1.1623   -1.1888    1.7011 H   0  0  0  0  0  0  0  0  0  0  0  0
    1.1415    0.8951   -2.2450 H   0  0  0  0  0  0  0  0  0  0  0  0
    0.6425    3.1247    1.0283 H   0  0  0  0  0  0  0  0  0  0  0  0
   -3.5352    1.1874    0.4505 H   0  0  0  0  0  0  0  0  0  0  0  0
   -3.1349   -1.6656   -1.0162 H   0  0  0  0  0  0  0  0  0  0  0  0
   -2.1895   -3.1816    1.4171 H   0  0  0  0  0  0  0  0  0  0  0  0
  1  2  1  0  0  0  0
  1  3  1  0  0  0  0
  1  4  1  0  0  0  0
  1 10  2  0  0  0  0
  2 12  1  0  0  0  0
  3 13  1  0  0  0  0
  4 13  1  0  0  0  0
  5 13  1  0  0  0  0
  5 16  1  0  0  0  0
  6 12  1  0  0  0  0
  6 22  1  0  0  0  0
  7 14  1  0  0  0  0
  7 23  1  0  0  0  0
  8 15  1  0  0  0  0
  8 24  1  0  0  0  0
  9 16  1  0  0  0  0
  9 25  1  0  0  0  0
 11 17  1  0  0  0  0
 11 26  1  0  0  0  0
 12 13  1  0  0  0  0
 12 14  1  0  0  0  0
 14 15  1  0  0  0  0
 14 18  1  0  0  0  0
 15 16  1  0  0  0  0
 15 19  1  0  0  0  0
 16 17  1  0  0  0  0
 17 20  1  0  0  0  0
 17 21  1  0  0  0  0
M  END
> <PUBCHEM_COMPOUND_CID>
129630552

> <PUBCHEM_CONFORMER_RMSD>
0.6

> <PUBCHEM_CONFORMER_DIVERSEORDER>
1
2

> <PUBCHEM_MMFF94_PARTIAL_CHARGES>
22
1 1.51
10 -0.7
11 -0.68
12 0.56
13 0.77
14 0.28
15 0.28
16 0.56
17 0.28
2 -0.55
22 0.4
23 0.4
24 0.4
25 0.4
26 0.4
3 -0.53
4 -0.53
5 -0.54
6 -0.68
7 -0.68
8 -0.68
9 -0.68

> <PUBCHEM_EFFECTIVE_ROTOR_COUNT>
2.4

> <PUBCHEM_PHARMACOPHORE_FEATURES>
14
1 10 acceptor
1 11 acceptor
1 11 donor
1 5 acceptor
1 6 acceptor
1 6 donor
1 7 acceptor
1 7 donor
1 8 acceptor
1 8 donor
1 9 acceptor
1 9 donor
6 1 2 3 4 12 13 rings
6 5 12 13 14 15 16 rings

> <PUBCHEM_HEAVY_ATOM_COUNT>
17

> <PUBCHEM_ATOM_DEF_STEREO_COUNT>
4

> <PUBCHEM_ATOM_UDEF_STEREO_COUNT>
0

> <PUBCHEM_BOND_DEF_STEREO_COUNT>
0

> <PUBCHEM_BOND_UDEF_STEREO_COUNT>
0

> <PUBCHEM_ISOTOPIC_ATOM_COUNT>
0

> <PUBCHEM_COMPONENT_COUNT>
1

> <PUBCHEM_CACTVS_TAUTO_COUNT>
1

> <PUBCHEM_CONFORMER_ID>
07BA015800000001

> <PUBCHEM_MMFF94_ENERGY>
66.1791

> <PUBCHEM_FEATURE_SELFOVERLAP>
71.268

> <PUBCHEM_SHAPE_FINGERPRINT>
11067466 332 17468771026970451339
12382932 28 18342462516892043056
12423570 1 17986117301042170081
13024252 1 13624107317871899660
13140716 1 18413393133102479152
14115302 16 18040714800950231439
14817 1 18197231247299535492
15001771 113 18334021613370110190
15490181 7 17404302897679225341
16945 1 18267591204053200068
20511035 2 18343024401825508581
20525323 117 18272932734577836123
20653091 64 18115312313981867358
21501502 16 18263936608065282315
232386 152 18411987952920677660
2334 1 18341334503914102912
23402539 116 18129644340886930407
23419403 2 17548638250121452141
23559900 14 18197789804483023558
2748010 2 18272654562304538100
5084963 1 17679859589912970725
5255222 1 16391007184940762508
5493415 88 18262512735827580698
75552 356 18408882902108848410
81228 2 18270124482980522288

> <PUBCHEM_SHAPE_MULTIPOLES>
295.01
4.13
2.34
1.13
1.51
0.53
-0.22
-1.6
0.68
-0.93
0.52
-0.05
0
-0.26

> <PUBCHEM_SHAPE_SELFOVERLAP>
628.933

> <PUBCHEM_SHAPE_VOLUME>
165.1

> <PUBCHEM_COORDINATE_TYPE>
2
5
10