129641800
  -OEChem-05072106003D

 24 23  0     1  0  0  0  0  0999 V2000
    0.3519    0.2791   -1.6183 O   0  0  0  0  0  0  0  0  0  0  0  0
    2.1226   -0.0906    1.5775 O   0  0  0  0  0  0  0  0  0  0  0  0
   -0.4005   -1.9829   -0.0096 O   0  0  0  0  0  0  0  0  0  0  0  0
    4.2744    0.3469   -0.1331 O   0  0  0  0  0  0  0  0  0  0  0  0
   -2.7912   -1.0033   -0.5176 O   0  0  0  0  0  0  0  0  0  0  0  0
   -3.8375    1.3496    0.1675 O   0  0  0  0  0  0  0  0  0  0  0  0
    0.4985    0.2323   -0.2020 C   0  0  2  0  0  0  0  0  0  0  0  0
    1.9437   -0.1550    0.1629 C   0  0  1  0  0  0  0  0  0  0  0  0
   -0.5985   -0.6427    0.4233 C   0  0  1  0  0  0  0  0  0  0  0  0
    2.9644    0.7814   -0.4844 C   0  0  0  0  0  0  0  0  0  0  0  0
   -2.0329   -0.2411    0.0839 C   0  0  0  0  0  0  0  0  0  0  0  0
   -2.4952    1.1262    0.5499 C   0  0  1  0  0  0  0  0  0  0  0  0
    0.3426    1.2574    0.1580 H   0  0  0  0  0  0  0  0  0  0  0  0
    2.1541   -1.1841   -0.1514 H   0  0  0  0  0  0  0  0  0  0  0  0
   -0.5134   -0.6431    1.5152 H   0  0  0  0  0  0  0  0  0  0  0  0
    2.8836    0.7759   -1.5752 H   0  0  0  0  0  0  0  0  0  0  0  0
    2.8446    1.8051   -0.1146 H   0  0  0  0  0  0  0  0  0  0  0  0
   -0.5184    0.6631   -1.8176 H   0  0  0  0  0  0  0  0  0  0  0  0
   -1.8740    1.8988    0.0910 H   1  0  0  0  0  0  0  0  0  0  0  0
   -2.4221    1.1740    1.6397 H   0  0  0  0  0  0  0  0  0  0  0  0
    3.0442   -0.3367    1.7667 H   0  0  0  0  0  0  0  0  0  0  0  0
   -0.4090   -1.9850   -0.9822 H   0  0  0  0  0  0  0  0  0  0  0  0
    4.9002    0.9620   -0.5522 H   0  0  0  0  0  0  0  0  0  0  0  0
   -4.0897    2.2265    0.5035 H   0  0  0  0  0  0  0  0  0  0  0  0
  1  7  1  0  0  0  0
  1 18  1  0  0  0  0
  2  8  1  0  0  0  0
  2 21  1  0  0  0  0
  3  9  1  0  0  0  0
  3 22  1  0  0  0  0
  4 10  1  0  0  0  0
  4 23  1  0  0  0  0
  5 11  2  0  0  0  0
  6 12  1  0  0  0  0
  6 24  1  0  0  0  0
  7  8  1  0  0  0  0
  7  9  1  0  0  0  0
  7 13  1  0  0  0  0
  8 10  1  0  0  0  0
  8 14  1  0  0  0  0
  9 11  1  0  0  0  0
  9 15  1  0  0  0  0
 10 16  1  0  0  0  0
 10 17  1  0  0  0  0
 11 12  1  0  0  0  0
 12 19  1  0  0  0  0
 12 20  1  0  0  0  0
M  ISO  1  19   2
M  END
> <PUBCHEM_COMPOUND_CID>
129641800

> <PUBCHEM_CONFORMER_RMSD>
0.8

> <PUBCHEM_CONFORMER_DIVERSEORDER>
1
10
32
57
34
48
9
3
55
8
65
25
69
22
7
64
51
62
45
24
13
37
67
30
11
35
58
12
56
38
27
19
18
54
33
50
16
42
20
60
70
5
46
44
17
49
15
63
41
68
26
59
2
47
14
52
28
40
23
66
31
39
6
53
36
21
43
29
61
4

> <PUBCHEM_MMFF94_PARTIAL_CHARGES>
17
1 -0.68
10 0.28
11 0.45
12 0.34
18 0.4
2 -0.68
21 0.4
22 0.4
23 0.4
24 0.4
3 -0.68
4 -0.68
5 -0.57
6 -0.68
7 0.28
8 0.28
9 0.34

> <PUBCHEM_EFFECTIVE_ROTOR_COUNT>
5

> <PUBCHEM_PHARMACOPHORE_FEATURES>
11
1 1 acceptor
1 1 donor
1 2 acceptor
1 2 donor
1 3 acceptor
1 3 donor
1 4 acceptor
1 4 donor
1 5 acceptor
1 6 acceptor
1 6 donor

> <PUBCHEM_HEAVY_ATOM_COUNT>
12

> <PUBCHEM_ATOM_DEF_STEREO_COUNT>
3

> <PUBCHEM_ATOM_UDEF_STEREO_COUNT>
1

> <PUBCHEM_BOND_DEF_STEREO_COUNT>
0

> <PUBCHEM_BOND_UDEF_STEREO_COUNT>
0

> <PUBCHEM_ISOTOPIC_ATOM_COUNT>
1

> <PUBCHEM_COMPONENT_COUNT>
1

> <PUBCHEM_CACTVS_TAUTO_COUNT>
6

> <PUBCHEM_CONFORMER_ID>
07BA2D4800000001

> <PUBCHEM_MMFF94_ENERGY>
16.7119

> <PUBCHEM_FEATURE_SELFOVERLAP>
55.858

> <PUBCHEM_SHAPE_FINGERPRINT>
10219947 1 17458344117638590695
12138202 97 17703792526492234367
12251169 10 16732998526268009649
124424 183 17346602954584569850
12897270 3 15841551855792004561
12932764 1 17418371419544911591
13839132 238 17987529125638585557
14325111 11 18411703179308850266
14993402 34 18041273361119937695
15775835 57 18334297548044990817
18186145 218 16774077384045191587
20653085 51 17060052683280895217
20711983 171 18413108355327449068
21119208 17 14045740387723712057
21256008 23 16443072702922594684
21293036 1 14979954761563053892
23402539 116 18200869677800593399
23557571 272 17632582677863558797
29004967 10 15285636607803542148
305870 269 18336267825727060835
5084963 1 17561086963646464738
57812782 119 16559031592838941096

> <PUBCHEM_SHAPE_MULTIPOLES>
211.74
6.02
1.28
1.02
1.44
0.31
0
-2.26
-0.19
-0.91
0
0.36
-0.04
-0.43

> <PUBCHEM_SHAPE_SELFOVERLAP>
401.777

> <PUBCHEM_SHAPE_VOLUME>
129.9

> <PUBCHEM_COORDINATE_TYPE>
2
5
10