129689937
  -OEChem-05072106003D

 39 41  0     1  0  0  0  0  0999 V2000
    1.3343    0.8462   -1.0013 O   0  0  0  0  0  0  0  0  0  0  0  0
   -0.6609   -1.9229    0.4320 O   0  0  0  0  0  0  0  0  0  0  0  0
   -0.2599    0.8153    0.7656 O   0  0  0  0  0  0  0  0  0  0  0  0
   -0.8370    0.2849   -1.5494 O   0  0  0  0  0  0  0  0  0  0  0  0
    0.7147   -1.9341   -1.5207 O   0  0  0  0  0  0  0  0  0  0  0  0
    1.9932   -2.8583    0.7604 O   0  0  0  0  0  0  0  0  0  0  0  0
    3.9545   -0.8049    1.0060 O   0  0  0  0  0  0  0  0  0  0  0  0
    3.6205    1.2106   -1.0753 O   0  0  0  0  0  0  0  0  0  0  0  0
   -3.7853    0.7718    1.4791 O   0  0  0  0  0  0  0  0  0  0  0  0
    2.2134    2.9635    0.5723 O   0  0  0  0  0  0  0  0  0  0  0  0
   -1.5162    1.1360    2.5802 O   0  0  0  0  0  0  0  0  0  0  0  0
   -2.0666   -2.3437   -1.3440 O   0  0  0  0  0  0  0  0  0  0  0  0
   -1.4781    2.4017   -2.0806 O   0  0  0  0  0  0  0  0  0  0  0  0
    0.4503   -1.3129   -0.2584 C   0  0  1  0  0  0  0  0  0  0  0  0
    0.1487    0.1957   -0.4957 C   0  0  1  0  0  0  0  0  0  0  0  0
    1.6759   -1.4676    0.6536 C   0  0  2  0  0  0  0  0  0  0  0  0
    2.8755   -0.7240    0.0746 C   0  0  1  0  0  0  0  0  0  0  0  0
    2.5435    0.7426   -0.2439 C   0  0  2  0  0  0  0  0  0  0  0  0
   -2.6941    0.3270    0.6366 C   0  0  1  0  0  0  0  0  0  0  0  0
    2.5166    1.6489    0.9935 C   0  0  0  0  0  0  0  0  0  0  0  0
   -2.8616   -1.2012    0.6320 C   0  0  0  0  0  0  0  0  0  0  0  0
   -2.9110    1.0129   -0.7176 C   0  0  0  0  0  0  0  0  0  0  0  0
   -1.4521    0.7801    1.4029 C   0  0  0  0  0  0  0  0  0  0  0  0
   -1.8548   -1.9178   -0.2180 C   0  0  0  0  0  0  0  0  0  0  0  0
   -1.6637    1.3502   -1.4839 C   0  0  0  0  0  0  0  0  0  0  0  0
    1.4527   -1.1280    1.6722 H   0  0  0  0  0  0  0  0  0  0  0  0
    3.2171   -1.2407   -0.8318 H   0  0  0  0  0  0  0  0  0  0  0  0
    3.5022    1.6847    1.4705 H   0  0  0  0  0  0  0  0  0  0  0  0
    1.7890    1.3398    1.7453 H   0  0  0  0  0  0  0  0  0  0  0  0
   -3.8634   -1.4770    0.2777 H   0  0  0  0  0  0  0  0  0  0  0  0
   -2.8044   -1.6064    1.6513 H   0  0  0  0  0  0  0  0  0  0  0  0
   -3.4401    1.9643   -0.5710 H   0  0  0  0  0  0  0  0  0  0  0  0
   -3.5602    0.4113   -1.3648 H   0  0  0  0  0  0  0  0  0  0  0  0
    0.1612   -1.5008   -2.1919 H   0  0  0  0  0  0  0  0  0  0  0  0
    2.7887   -2.9321    1.3149 H   0  0  0  0  0  0  0  0  0  0  0  0
    4.7122   -0.3390    0.6127 H   0  0  0  0  0  0  0  0  0  0  0  0
    3.6396    2.1811   -1.0232 H   0  0  0  0  0  0  0  0  0  0  0  0
   -3.7477    1.7420    1.5391 H   0  0  0  0  0  0  0  0  0  0  0  0
    2.2147    3.5277    1.3643 H   0  0  0  0  0  0  0  0  0  0  0  0
  1 15  1  0  0  0  0
  1 18  1  0  0  0  0
  2 14  1  0  0  0  0
  2 24  1  0  0  0  0
  3 15  1  0  0  0  0
  3 23  1  0  0  0  0
  4 15  1  0  0  0  0
  4 25  1  0  0  0  0
  5 14  1  0  0  0  0
  5 34  1  0  0  0  0
  6 16  1  0  0  0  0
  6 35  1  0  0  0  0
  7 17  1  0  0  0  0
  7 36  1  0  0  0  0
  8 18  1  0  0  0  0
  8 37  1  0  0  0  0
  9 19  1  0  0  0  0
  9 38  1  0  0  0  0
 10 20  1  0  0  0  0
 10 39  1  0  0  0  0
 11 23  2  0  0  0  0
 12 24  2  0  0  0  0
 13 25  2  0  0  0  0
 14 15  1  0  0  0  0
 14 16  1  0  0  0  0
 16 17  1  0  0  0  0
 16 26  1  0  0  0  0
 17 18  1  0  0  0  0
 17 27  1  0  0  0  0
 18 20  1  0  0  0  0
 19 21  1  0  0  0  0
 19 22  1  0  0  0  0
 19 23  1  0  0  0  0
 20 28  1  0  0  0  0
 20 29  1  0  0  0  0
 21 24  1  0  0  0  0
 21 30  1  0  0  0  0
 21 31  1  0  0  0  0
 22 25  1  0  0  0  0
 22 32  1  0  0  0  0
 22 33  1  0  0  0  0
M  END
> <PUBCHEM_COMPOUND_CID>
129689937

> <PUBCHEM_CONFORMER_RMSD>
0.6

> <PUBCHEM_CONFORMER_DIVERSEORDER>
1
13
15
6
12
11
2
3
10
14
8
5
7
4
9

> <PUBCHEM_MMFF94_PARTIAL_CHARGES>
31
1 -0.56
10 -0.68
11 -0.57
12 -0.57
13 -0.57
14 0.56
15 0.84
16 0.28
17 0.28
18 0.56
19 0.34
2 -0.43
20 0.28
21 0.06
22 0.06
23 0.66
24 0.66
25 0.66
3 -0.43
34 0.4
35 0.4
36 0.4
37 0.4
38 0.4
39 0.4
4 -0.43
5 -0.68
6 -0.68
7 -0.68
8 -0.68
9 -0.68

> <PUBCHEM_EFFECTIVE_ROTOR_COUNT>
2.8

> <PUBCHEM_PHARMACOPHORE_FEATURES>
18
1 1 acceptor
1 10 acceptor
1 10 donor
1 11 acceptor
1 12 acceptor
1 13 acceptor
1 5 acceptor
1 5 donor
1 6 acceptor
1 6 donor
1 7 acceptor
1 7 donor
1 8 acceptor
1 8 donor
1 9 acceptor
1 9 donor
6 1 14 15 16 17 18 rings
7 3 4 15 19 22 23 25 rings

> <PUBCHEM_HEAVY_ATOM_COUNT>
25

> <PUBCHEM_ATOM_DEF_STEREO_COUNT>
4

> <PUBCHEM_ATOM_UDEF_STEREO_COUNT>
2

> <PUBCHEM_BOND_DEF_STEREO_COUNT>
0

> <PUBCHEM_BOND_UDEF_STEREO_COUNT>
0

> <PUBCHEM_ISOTOPIC_ATOM_COUNT>
0

> <PUBCHEM_COMPONENT_COUNT>
1

> <PUBCHEM_CACTVS_TAUTO_COUNT>
1

> <PUBCHEM_CONFORMER_ID>
07BAE95100000001

> <PUBCHEM_MMFF94_ENERGY>
101.5268

> <PUBCHEM_FEATURE_SELFOVERLAP>
91.46

> <PUBCHEM_SHAPE_FINGERPRINT>
10863032 1 18408316696918226823
10948715 1 18201450181190290689
11578080 2 18125693894451042849
11582403 64 16306201122988534684
12403814 3 18260266356689559505
12507560 14 17979910519190841595
12633257 1 18337676325617434281
13140716 1 18411699932582541752
13538477 17 18130792277943765138
14142880 1 18123745615354053485
14223421 5 18338796844136275042
14386348 128 18337675312327249628
14787075 74 17265814391744486057
15309172 13 18188217601441366044
15775835 57 18336275620992242348
15881359 60 17822007653140007301
16945 1 18339914939860512214
18186145 218 18201440315397567804
18219364 16 18336821979429022444
18981168 100 17986934418644074568
21501502 16 18336258028774711982
22344851 262 18115880748904022185
2334 1 18193273216061607558
23419403 2 14956486794196954846
23493267 7 17417270791304552193
23559900 14 17631472140696090036
238 59 17977347630922765365
2748010 2 17759800347367663022
350125 39 18335979882756150320
4340502 62 18200602406591992889
81228 2 17688305012051689446

> <PUBCHEM_SHAPE_MULTIPOLES>
438.19
5.36
2.71
1.73
1.66
0.43
-0.11
-0.75
-1.04
0.57
0.31
-0.91
-0.68
-0.16

> <PUBCHEM_SHAPE_SELFOVERLAP>
953.935

> <PUBCHEM_SHAPE_VOLUME>
226.9

> <PUBCHEM_COORDINATE_TYPE>
2
5
10