129689680
  -OEChem-05072106003D

 48 48  0     1  0  0  0  0  0999 V2000
   -2.1660    0.7085   -0.3444 O   0  0  0  0  0  0  0  0  0  0  0  0
   -0.4387   -0.8579   -0.3971 O   0  0  0  0  0  0  0  0  0  0  0  0
   -4.6550    0.1559   -1.8561 O   0  0  0  0  0  0  0  0  0  0  0  0
   -4.3713   -1.5972    1.3174 O   0  0  0  0  0  0  0  0  0  0  0  0
   -3.5780    1.1516    1.5041 O   0  0  0  0  0  0  0  0  0  0  0  0
   -2.3184   -2.9385    0.0838 O   0  0  0  0  0  0  0  0  0  0  0  0
   -2.7703    3.3648    0.0351 O   0  0  0  0  0  0  0  0  0  0  0  0
    0.4763    0.4349    1.2798 O   0  0  0  0  0  0  0  0  0  0  0  0
   -4.5243    0.0651   -0.4381 C   0  0  1  0  0  0  0  0  0  0  0  0
   -4.1469   -1.3761   -0.0751 C   0  0  1  0  0  0  0  0  0  0  0  0
   -3.4836    1.0851    0.0782 C   0  0  2  0  0  0  0  0  0  0  0  0
   -2.6862   -1.6631   -0.4331 C   0  0  1  0  0  0  0  0  0  0  0  0
   -1.7482   -0.5811    0.1022 C   0  0  2  0  0  0  0  0  0  0  0  0
   -3.7478    2.4848   -0.4843 C   0  0  0  0  0  0  0  0  0  0  0  0
    3.1143   -0.0216    0.3065 C   0  0  0  0  0  0  0  0  0  0  0  0
    1.8955   -0.6407   -0.3774 C   0  0  0  0  0  0  0  0  0  0  0  0
    0.5885   -0.2807    0.2940 C   0  0  0  0  0  0  0  0  0  0  0  0
    4.4209   -0.3382   -0.4278 C   0  0  0  0  0  0  0  0  0  0  0  0
    5.6243    0.2702    0.2950 C   0  0  0  0  0  0  0  0  0  0  0  0
    6.9331   -0.0726   -0.4184 C   0  0  0  0  0  0  0  0  0  0  0  0
    8.1383    0.5070    0.3216 C   0  0  0  0  0  0  0  0  0  0  0  0
    9.4436    0.1399   -0.3659 C   0  0  0  0  0  0  0  0  0  0  0  0
   -5.5009    0.3076    0.0001 H   0  0  0  0  0  0  0  0  0  0  0  0
   -4.7838   -2.0915   -0.6093 H   0  0  0  0  0  0  0  0  0  0  0  0
   -2.5833   -1.7103   -1.5247 H   0  0  0  0  0  0  0  0  0  0  0  0
   -1.7306   -0.6194    1.1997 H   0  0  0  0  0  0  0  0  0  0  0  0
   -4.7337    2.8519   -0.1814 H   0  0  0  0  0  0  0  0  0  0  0  0
   -3.6639    2.5050   -1.5754 H   0  0  0  0  0  0  0  0  0  0  0  0
   -5.3550   -0.4622   -2.1272 H   0  0  0  0  0  0  0  0  0  0  0  0
   -5.3135   -1.4324    1.4923 H   0  0  0  0  0  0  0  0  0  0  0  0
   -3.2464    2.0198    1.7888 H   0  0  0  0  0  0  0  0  0  0  0  0
   -2.9314   -3.5944   -0.2897 H   0  0  0  0  0  0  0  0  0  0  0  0
    3.1733   -0.3861    1.3398 H   0  0  0  0  0  0  0  0  0  0  0  0
    2.9861    1.0665    0.3674 H   0  0  0  0  0  0  0  0  0  0  0  0
    1.8458   -0.2930   -1.4157 H   0  0  0  0  0  0  0  0  0  0  0  0
    1.9902   -1.7325   -0.3744 H   0  0  0  0  0  0  0  0  0  0  0  0
    4.3702    0.0498   -1.4523 H   0  0  0  0  0  0  0  0  0  0  0  0
    4.5446   -1.4256   -0.4985 H   0  0  0  0  0  0  0  0  0  0  0  0
    5.5090    1.3595    0.3504 H   0  0  0  0  0  0  0  0  0  0  0  0
    5.6600   -0.1041    1.3254 H   0  0  0  0  0  0  0  0  0  0  0  0
   -2.9563    4.2478   -0.3270 H   0  0  0  0  0  0  0  0  0  0  0  0
    6.9073    0.3171   -1.4433 H   0  0  0  0  0  0  0  0  0  0  0  0
    7.0369   -1.1623   -0.4898 H   0  0  0  0  0  0  0  0  0  0  0  0
    8.0527    1.5986    0.3747 H   0  0  0  0  0  0  0  0  0  0  0  0
    8.1587    0.1326    1.3518 H   0  0  0  0  0  0  0  0  0  0  0  0
    9.4694    0.5258   -1.3900 H   0  0  0  0  0  0  0  0  0  0  0  0
    9.5752   -0.9462   -0.4043 H   0  0  0  0  0  0  0  0  0  0  0  0
   10.2919    0.5657    0.1791 H   0  0  0  0  0  0  0  0  0  0  0  0
  1 11  1  0  0  0  0
  1 13  1  0  0  0  0
  2 13  1  0  0  0  0
  2 17  1  0  0  0  0
  3  9  1  0  0  0  0
  3 29  1  0  0  0  0
  4 10  1  0  0  0  0
  4 30  1  0  0  0  0
  5 11  1  0  0  0  0
  5 31  1  0  0  0  0
  6 12  1  0  0  0  0
  6 32  1  0  0  0  0
  7 14  1  0  0  0  0
  7 41  1  0  0  0  0
  8 17  2  0  0  0  0
  9 10  1  0  0  0  0
  9 11  1  0  0  0  0
  9 23  1  0  0  0  0
 10 12  1  0  0  0  0
 10 24  1  0  0  0  0
 11 14  1  0  0  0  0
 12 13  1  0  0  0  0
 12 25  1  0  0  0  0
 13 26  1  0  0  0  0
 14 27  1  0  0  0  0
 14 28  1  0  0  0  0
 15 16  1  0  0  0  0
 15 18  1  0  0  0  0
 15 33  1  0  0  0  0
 15 34  1  0  0  0  0
 16 17  1  0  0  0  0
 16 35  1  0  0  0  0
 16 36  1  0  0  0  0
 18 19  1  0  0  0  0
 18 37  1  0  0  0  0
 18 38  1  0  0  0  0
 19 20  1  0  0  0  0
 19 39  1  0  0  0  0
 19 40  1  0  0  0  0
 20 21  1  0  0  0  0
 20 42  1  0  0  0  0
 20 43  1  0  0  0  0
 21 22  1  0  0  0  0
 21 44  1  0  0  0  0
 21 45  1  0  0  0  0
 22 46  1  0  0  0  0
 22 47  1  0  0  0  0
 22 48  1  0  0  0  0
M  END
> <PUBCHEM_COMPOUND_CID>
129689680

> <PUBCHEM_CONFORMER_RMSD>
1.2

> <PUBCHEM_CONFORMER_DIVERSEORDER>
1
84
23
96
66
7
5
89
25
32
46
71
54
29
70
40
58
41
12
48
91
36
68
61
9
72
56
100
6
90
42
44
35
62
75
65
93
49
63
98
67
55
21
78
34
14
79
64
57
45
59
103
51
43
39
95
8
11
77
15
94
24
82
31
81
47
22
27
76
18
30
52
97
16
4
92
85
26
83
38
86
28
10
101
37
102
99
50
3
13
88
19
17
74
69
87
60
2
53
73
80
20
33

> <PUBCHEM_MMFF94_PARTIAL_CHARGES>
21
1 -0.56
10 0.28
11 0.56
12 0.28
13 0.56
14 0.28
16 0.06
17 0.66
2 -0.43
29 0.4
3 -0.68
30 0.4
31 0.4
32 0.4
4 -0.68
41 0.4
5 -0.68
6 -0.68
7 -0.68
8 -0.57
9 0.28

> <PUBCHEM_EFFECTIVE_ROTOR_COUNT>
10.2

> <PUBCHEM_PHARMACOPHORE_FEATURES>
16
1 1 acceptor
1 22 hydrophobe
1 3 acceptor
1 3 donor
1 4 acceptor
1 4 donor
1 5 acceptor
1 5 donor
1 6 acceptor
1 6 donor
1 7 acceptor
1 7 donor
1 8 acceptor
3 15 16 18 hydrophobe
3 19 20 21 hydrophobe
6 1 9 10 11 12 13 rings

> <PUBCHEM_HEAVY_ATOM_COUNT>
22

> <PUBCHEM_ATOM_DEF_STEREO_COUNT>
4

> <PUBCHEM_ATOM_UDEF_STEREO_COUNT>
1

> <PUBCHEM_BOND_DEF_STEREO_COUNT>
0

> <PUBCHEM_BOND_UDEF_STEREO_COUNT>
0

> <PUBCHEM_ISOTOPIC_ATOM_COUNT>
0

> <PUBCHEM_COMPONENT_COUNT>
1

> <PUBCHEM_CACTVS_TAUTO_COUNT>
1

> <PUBCHEM_CONFORMER_ID>
07BAE85000000001

> <PUBCHEM_MMFF94_ENERGY>
36.2026

> <PUBCHEM_FEATURE_SELFOVERLAP>
81.282

> <PUBCHEM_SHAPE_FINGERPRINT>
100830 39 18410573960231467116
10087517 78 18260546697953842020
10411042 1 18050287265705532935
10638233 991 17749682887047226396
10670039 82 18409161095947140888
10730089 173 18410292497849384588
11315181 36 18040435511985020436
12091667 2 18411699902808135062
12107183 9 17685485456263769010
13073987 5 18261675887731591762
13403585 85 18412543223942227892
13631057 29 17677335042776410459
13885169 127 18410012123001109918
14251752 14 18411133620408186250
14251764 18 17530965805098679532
14933364 13 18411983573019341204
15021287 119 17458350758206780572
15183329 4 18410570679007815264
155225 5 18196371408292077224
17093844 174 15068619396496255934
17844677 252 18410017671603276472
18336668 15 18113623387029380068
18927931 339 18412266159643703495
19489759 90 18413107268938060994
20281389 69 18409727353542124024
21315763 28 18409729591293600460
23198884 109 18411698768794058318
23402539 116 17240198846293483622
23536379 177 18334574634314048818
23559900 14 18271237318176742122
328310 630 17677061234832885036
397830 11 11675462776656099452
4073 2 18114467834104118378
444735 82 18268708489591140456
445580 37 18409737253452258564
531348 171 17988075587043928486
6327066 14 18045212752981055357

> <PUBCHEM_SHAPE_MULTIPOLES>
405.8
20.46
2.17
1
61.1
0.86
0.03
2.79
-1.93
-4.83
0.04
-1
0.05
0.43

> <PUBCHEM_SHAPE_SELFOVERLAP>
798.858

> <PUBCHEM_SHAPE_VOLUME>
239.3

> <PUBCHEM_COORDINATE_TYPE>
2
5
10