129689608
  -OEChem-05072106003D

 32 32  0     1  0  0  0  0  0999 V2000
   -0.4945   -0.7482    0.2917 O   0  0  0  0  0  0  0  0  0  0  0  0
   -2.7868    0.2852    1.8612 O   0  0  0  0  0  0  0  0  0  0  0  0
   -2.2238    1.9675   -1.3133 O   0  0  0  0  0  0  0  0  0  0  0  0
   -2.0068   -0.8836   -1.5253 O   0  0  0  0  0  0  0  0  0  0  0  0
    0.0843    2.8573   -0.1233 O   0  0  0  0  0  0  0  0  0  0  0  0
    1.5145    0.4364    0.3092 O   0  0  0  0  0  0  0  0  0  0  0  0
   -1.6315   -3.2247   -0.0808 O   0  0  0  0  0  0  0  0  0  0  0  0
    2.1721   -1.0107   -1.3819 O   0  0  0  0  0  0  0  0  0  0  0  0
    4.1951   -1.3103    0.6778 O   0  0  0  0  0  0  0  0  0  0  0  0
   -2.6715    0.3578    0.4409 C   0  0  1  0  0  0  0  0  0  0  0  0
   -2.0184    1.6956    0.0731 C   0  0  1  0  0  0  0  0  0  0  0  0
   -1.8700   -0.8477   -0.1018 C   0  0  2  0  0  0  0  0  0  0  0  0
   -0.5223    1.6789    0.3985 C   0  0  1  0  0  0  0  0  0  0  0  0
    0.1657    0.4336   -0.1609 C   0  0  2  0  0  0  0  0  0  0  0  0
   -2.3994   -2.1691    0.4630 C   0  0  0  0  0  0  0  0  0  0  0  0
    2.3718   -0.3222   -0.4001 C   0  0  0  0  0  0  0  0  0  0  0  0
    3.7257   -0.2671    0.2487 C   0  0  0  0  0  0  0  0  0  0  0  0
    4.3957    1.0713    0.3233 C   0  0  0  0  0  0  0  0  0  0  0  0
   -3.6862    0.3209    0.0245 H   0  0  0  0  0  0  0  0  0  0  0  0
   -2.4857    2.5211    0.6236 H   0  0  0  0  0  0  0  0  0  0  0  0
   -0.3882    1.6966    1.4877 H   0  0  0  0  0  0  0  0  0  0  0  0
    0.1683    0.4730   -1.2586 H   0  0  0  0  0  0  0  0  0  0  0  0
   -3.4455   -2.3273    0.1817 H   0  0  0  0  0  0  0  0  0  0  0  0
   -2.2976   -2.2136    1.5518 H   0  0  0  0  0  0  0  0  0  0  0  0
   -3.3413    1.0300    2.1498 H   0  0  0  0  0  0  0  0  0  0  0  0
   -3.1834    1.9978   -1.4670 H   0  0  0  0  0  0  0  0  0  0  0  0
   -1.8640   -1.7988   -1.8197 H   0  0  0  0  0  0  0  0  0  0  0  0
   -0.3749    3.6209    0.2661 H   0  0  0  0  0  0  0  0  0  0  0  0
   -1.9843   -4.0545    0.2831 H   0  0  0  0  0  0  0  0  0  0  0  0
    3.8641    1.7150    1.0279 H   0  0  0  0  0  0  0  0  0  0  0  0
    5.4262    0.9429    0.6660 H   0  0  0  0  0  0  0  0  0  0  0  0
    4.4146    1.5301   -0.6686 H   0  0  0  0  0  0  0  0  0  0  0  0
  1 12  1  0  0  0  0
  1 14  1  0  0  0  0
  2 10  1  0  0  0  0
  2 25  1  0  0  0  0
  3 11  1  0  0  0  0
  3 26  1  0  0  0  0
  4 12  1  0  0  0  0
  4 27  1  0  0  0  0
  5 13  1  0  0  0  0
  5 28  1  0  0  0  0
  6 14  1  0  0  0  0
  6 16  1  0  0  0  0
  7 15  1  0  0  0  0
  7 29  1  0  0  0  0
  8 16  2  0  0  0  0
  9 17  2  0  0  0  0
 10 11  1  0  0  0  0
 10 12  1  0  0  0  0
 10 19  1  0  0  0  0
 11 13  1  0  0  0  0
 11 20  1  0  0  0  0
 12 15  1  0  0  0  0
 13 14  1  0  0  0  0
 13 21  1  0  0  0  0
 14 22  1  0  0  0  0
 15 23  1  0  0  0  0
 15 24  1  0  0  0  0
 16 17  1  0  0  0  0
 17 18  1  0  0  0  0
 18 30  1  0  0  0  0
 18 31  1  0  0  0  0
 18 32  1  0  0  0  0
M  END
> <PUBCHEM_COMPOUND_CID>
129689608

> <PUBCHEM_CONFORMER_RMSD>
0.6

> <PUBCHEM_CONFORMER_DIVERSEORDER>
3
6
195
81
168
159
114
176
197
54
144
76
60
178
108
11
88
122
174
106
198
66
130
74
125
177
36
191
188
72
62
203
10
27
149
187
105
207
141
47
121
143
24
102
153
175
7
127
100
129
156
92
14
39
1
201
55
17
179
117
162
90
208
25
154
75
150
45
80
41
192
16
155
158
56
49
151
64
181
32
185
2
115
186
83
147
107
161
37
4
22
69
134
202
110
8
95
164
205
77
20
109
183
148
34
157
189
59
86
73
136
61
68
190
126
132
133
138
99
196
67
167
142
21
13
146
170
173
101
98
79
28
78
71
91
38
119
94
140
160
15
118
209
85
89
18
40
51
169
163
46
137
166
31
206
84
193
103
53
112
82
93
199
63
135
204
180
9
152
12
184
131
43
120
172
44
116
5
194
111
171
124
145
42
200
50
35
210
128
165
19
70
23
65
30
139
182
57
26
104
87
113
97
123
29
33
96
48
58
52

> <PUBCHEM_MMFF94_PARTIAL_CHARGES>
23
1 -0.56
10 0.28
11 0.28
12 0.56
13 0.28
14 0.56
15 0.28
16 0.72
17 0.51
18 0.06
2 -0.68
25 0.4
26 0.4
27 0.4
28 0.4
29 0.4
3 -0.68
4 -0.68
5 -0.68
6 -0.43
7 -0.68
8 -0.57
9 -0.57

> <PUBCHEM_EFFECTIVE_ROTOR_COUNT>
5.2

> <PUBCHEM_PHARMACOPHORE_FEATURES>
14
1 1 acceptor
1 2 acceptor
1 2 donor
1 3 acceptor
1 3 donor
1 4 acceptor
1 4 donor
1 5 acceptor
1 5 donor
1 7 acceptor
1 7 donor
1 8 acceptor
1 9 acceptor
6 1 10 11 12 13 14 rings

> <PUBCHEM_HEAVY_ATOM_COUNT>
18

> <PUBCHEM_ATOM_DEF_STEREO_COUNT>
4

> <PUBCHEM_ATOM_UDEF_STEREO_COUNT>
1

> <PUBCHEM_BOND_DEF_STEREO_COUNT>
0

> <PUBCHEM_BOND_UDEF_STEREO_COUNT>
0

> <PUBCHEM_ISOTOPIC_ATOM_COUNT>
0

> <PUBCHEM_COMPONENT_COUNT>
1

> <PUBCHEM_CACTVS_TAUTO_COUNT>
2

> <PUBCHEM_CONFORMER_ID>
07BAE80800000003

> <PUBCHEM_MMFF94_ENERGY>
43.057

> <PUBCHEM_FEATURE_SELFOVERLAP>
71.124

> <PUBCHEM_SHAPE_FINGERPRINT>
10989021 7 18194966468136905153
11132069 177 18272645741011534752
11578080 2 17460571822749563084
12382932 28 18343590633218294490
12500047 106 18263072224432655876
12553582 1 18194416712223258206
13024252 1 17240485788863743201
13214271 11 18272088335586384500
13693222 15 18410572899020617080
14289901 80 18187080689665599000
15534591 1 13841080583432633591
16945 1 18268734795273252353
20510252 161 18200317593666408369
20525323 117 18272651242452885374
20871998 184 18202005446998982591
21501502 16 18194693784863453273
21650355 55 18410851066587770712
22213442 358 18266739267283328728
23402539 116 18342446020344522373
23419403 2 17415249966759121481
23557571 272 18271815626864940796
23559900 14 18341043005422584018
2748010 2 18343868822507918742
81228 2 18341343205507178329
8809292 202 18413109433643886642
9709674 26 18343019939766263094

> <PUBCHEM_SHAPE_MULTIPOLES>
317.61
6.48
2.63
1.09
8.15
0.35
0.08
1.06
-1.14
-1.76
0.18
-0.56
0
0.19

> <PUBCHEM_SHAPE_SELFOVERLAP>
647.352

> <PUBCHEM_SHAPE_VOLUME>
180.6

> <PUBCHEM_COORDINATE_TYPE>
2
5
10