129630374
  -OEChem-05072106003D

 36 35  0     1  0  0  0  0  0999 V2000
    0.3858    1.0185    1.5043 O   0  0  0  0  0  0  0  0  0  0  0  0
   -0.4326   -2.2545    0.1032 O   0  0  0  0  0  0  0  0  0  0  0  0
    1.9088   -1.3806   -0.8216 O   0  0  0  0  0  0  0  0  0  0  0  0
    3.7225    0.7213   -1.0203 O   0  0  0  0  0  0  0  0  0  0  0  0
   -1.4762   -0.4697   -1.6599 O   0  0  0  0  0  0  0  0  0  0  0  0
   -3.3575    1.2998   -1.0031 O   0  0  0  0  0  0  0  0  0  0  0  0
    0.6174   -0.2506    0.8999 C   0  0  2  0  0  0  0  0  0  0  0  0
    1.5861   -0.0972   -0.2873 C   0  0  1  0  0  0  0  0  0  0  0  0
   -0.7154   -0.9449    0.5803 C   0  0  1  0  0  0  0  0  0  0  0  0
    2.8914    0.5824    0.1277 C   0  0  0  0  0  0  0  0  0  0  0  0
   -1.5914   -0.2412   -0.4548 C   0  0  0  0  0  0  0  0  0  0  0  0
   -2.6343    0.7280    0.0682 C   0  0  0  0  0  0  0  0  0  0  0  0
   -0.0022    0.8825    2.8634 C   0  0  0  0  0  0  0  0  0  0  0  0
   -1.5188   -3.1400    0.3375 C   0  0  0  0  0  0  0  0  0  0  0  0
    4.9631    1.3300   -0.6923 C   0  0  0  0  0  0  0  0  0  0  0  0
   -4.3467    2.2162   -0.5450 C   0  0  0  0  0  0  0  0  0  0  0  0
    1.1429   -0.9013    1.6160 H   0  0  0  0  0  0  0  0  0  0  0  0
    1.1202    0.4891   -1.0878 H   0  0  0  0  0  0  0  0  0  0  0  0
   -1.3094   -1.0311    1.4971 H   0  0  0  0  0  0  0  0  0  0  0  0
    2.6973    1.5733    0.5526 H   0  0  0  0  0  0  0  0  0  0  0  0
    3.4155   -0.0331    0.8689 H   0  0  0  0  0  0  0  0  0  0  0  0
   -2.1257    1.5168    0.6303 H   0  0  0  0  0  0  0  0  0  0  0  0
   -3.3161    0.1756    0.7235 H   0  0  0  0  0  0  0  0  0  0  0  0
    2.5240   -1.2423   -1.5620 H   0  0  0  0  0  0  0  0  0  0  0  0
   -0.0266    1.8838    3.3037 H   1  0  0  0  0  0  0  0  0  0  0  0
    0.7217    0.2863    3.4278 H   0  0  0  0  0  0  0  0  0  0  0  0
   -1.0050    0.4599    2.9588 H   0  0  0  0  0  0  0  0  0  0  0  0
   -1.2546   -4.1175   -0.0754 H   1  0  0  0  0  0  0  0  0  0  0  0
   -2.4309   -2.7942   -0.1581 H   0  0  0  0  0  0  0  0  0  0  0  0
   -1.6937   -3.2593    1.4114 H   0  0  0  0  0  0  0  0  0  0  0  0
    5.5576    1.4139   -1.6060 H   1  0  0  0  0  0  0  0  0  0  0  0
    5.5142    0.7162    0.0268 H   0  0  0  0  0  0  0  0  0  0  0  0
    4.8034    2.3339   -0.2870 H   0  0  0  0  0  0  0  0  0  0  0  0
   -4.8690    2.6215   -1.4157 H   1  0  0  0  0  0  0  0  0  0  0  0
   -3.8792    3.0423   -0.0005 H   0  0  0  0  0  0  0  0  0  0  0  0
   -5.0737    1.7057    0.0939 H   0  0  0  0  0  0  0  0  0  0  0  0
  1  7  1  0  0  0  0
  1 13  1  0  0  0  0
  2  9  1  0  0  0  0
  2 14  1  0  0  0  0
  3  8  1  0  0  0  0
  3 24  1  0  0  0  0
  4 10  1  0  0  0  0
  4 15  1  0  0  0  0
  5 11  2  0  0  0  0
  6 12  1  0  0  0  0
  6 16  1  0  0  0  0
  7  8  1  0  0  0  0
  7  9  1  0  0  0  0
  7 17  1  0  0  0  0
  8 10  1  0  0  0  0
  8 18  1  0  0  0  0
  9 11  1  0  0  0  0
  9 19  1  0  0  0  0
 10 20  1  0  0  0  0
 10 21  1  0  0  0  0
 11 12  1  0  0  0  0
 12 22  1  0  0  0  0
 12 23  1  0  0  0  0
 13 25  1  0  0  0  0
 13 26  1  0  0  0  0
 13 27  1  0  0  0  0
 14 28  1  0  0  0  0
 14 29  1  0  0  0  0
 14 30  1  0  0  0  0
 15 31  1  0  0  0  0
 15 32  1  0  0  0  0
 15 33  1  0  0  0  0
 16 34  1  0  0  0  0
 16 35  1  0  0  0  0
 16 36  1  0  0  0  0
M  ISO  4  25   2  28   2  31   2  34   2
M  END
> <PUBCHEM_COMPOUND_CID>
129630374

> <PUBCHEM_CONFORMER_RMSD>
0.8

> <PUBCHEM_CONFORMER_DIVERSEORDER>
1
4
86
85
20
82
29
51
64
68
12
80
11
25
66
76
57
42
75
84
58
59
48
19
18
39
28
10
70
14
79
56
55
6
83
87
77
53
63
31
24
27
52
78
67
43
15
45
47
21
72
61
16
34
73
44
36
33
22
49
81
41
8
40
71
23
2
74
37
26
9
62
7
17
69
32
35
65
50
3
30
13
38
46
60
54
5

> <PUBCHEM_MMFF94_PARTIAL_CHARGES>
17
1 -0.56
10 0.28
11 0.45
12 0.34
13 0.28
14 0.28
15 0.28
16 0.28
2 -0.56
24 0.4
3 -0.68
4 -0.56
5 -0.57
6 -0.56
7 0.28
8 0.28
9 0.34

> <PUBCHEM_EFFECTIVE_ROTOR_COUNT>
9

> <PUBCHEM_PHARMACOPHORE_FEATURES>
7
1 1 acceptor
1 2 acceptor
1 3 acceptor
1 3 donor
1 4 acceptor
1 5 acceptor
1 6 acceptor

> <PUBCHEM_HEAVY_ATOM_COUNT>
16

> <PUBCHEM_ATOM_DEF_STEREO_COUNT>
3

> <PUBCHEM_ATOM_UDEF_STEREO_COUNT>
0

> <PUBCHEM_BOND_DEF_STEREO_COUNT>
0

> <PUBCHEM_BOND_UDEF_STEREO_COUNT>
0

> <PUBCHEM_ISOTOPIC_ATOM_COUNT>
4

> <PUBCHEM_COMPONENT_COUNT>
1

> <PUBCHEM_CACTVS_TAUTO_COUNT>
3

> <PUBCHEM_CONFORMER_ID>
07BA00A600000001

> <PUBCHEM_MMFF94_ENERGY>
44.5762

> <PUBCHEM_FEATURE_SELFOVERLAP>
35.552

> <PUBCHEM_SHAPE_FINGERPRINT>
10610426 29 12823285784792552297
11132069 177 13767930121801715969
12138202 97 18411703213790174326
122479 349 17458356259701391620
12251169 10 12324248256087004924
12491281 212 17822006562270983544
14817 1 17186380079769851915
15534591 1 17676204705866994472
15775835 57 17313099748222003836
16945 1 18342737450796988210
1741750 31 18335419075606300832
18186145 218 18269004097837769151
18534176 82 18340206413663662206
19765921 60 18341889649996421483
20344682 10 14851605445006070885
20645476 183 18408600370527822407
20645477 56 18335427910570449628
20671657 53 14979950397728802737
20711985 344 18045768250870532843
20820808 20 18265892458661996403
20871999 31 18342452686033629941
21061003 4 17200531885467875906
21524375 3 17967526848750071813
22713019 5 16773520966811056073
23382010 3 18342447149683537613
23526113 38 17988928872417718999
23557571 272 18265345069559698574
23559900 14 18202567298485144448
24859131 72 7997974578378539925
25 1 18272932683090956519
2748010 2 17558256889689254032
298252 57 18186802465388352729
430814 3 17530956960827373041
549884 4 17773858862196776921
633830 44 18196652896052281189
81228 2 17977925093918916723

> <PUBCHEM_SHAPE_MULTIPOLES>
294.06
6.84
2.45
1.7
4.33
1.76
-1.4
-6.13
3.55
-2.26
0.14
0.01
-0.58
0.32

> <PUBCHEM_SHAPE_SELFOVERLAP>
554.125

> <PUBCHEM_SHAPE_VOLUME>
183.4

> <PUBCHEM_COORDINATE_TYPE>
2
5
10