129628138
  -OEChem-05072106003D

 28 32  0     1  0  0  0  0  0999 V2000
   -2.8701    0.2213    0.7084 P   0  0  0  0  0  0  0  0  0  0  0  0
    1.8311   -0.5297    1.5358 P   0  0  1  0  0  0  0  0  0  0  0  0
   -0.2735    1.3134   -1.1959 O   0  0  0  0  0  0  0  0  0  0  0  0
   -2.3020   -1.2490    0.2957 O   0  0  0  0  0  0  0  0  0  0  0  0
   -1.4715    0.9855    0.9654 O   0  0  0  0  0  0  0  0  0  0  0  0
   -2.6985    1.0082   -0.6962 O   0  0  0  0  0  0  0  0  0  0  0  0
    0.3396   -1.1223    1.2938 O   0  0  0  0  0  0  0  0  0  0  0  0
    2.4154   -0.8141    0.0376 O   0  0  0  0  0  0  0  0  0  0  0  0
    1.5393    1.0622    1.5219 O   0  0  0  0  0  0  0  0  0  0  0  0
   -1.4676   -1.3032   -1.9169 O   0  0  0  0  0  0  0  0  0  0  0  0
    0.2906   -2.7712   -0.3409 O   0  0  0  0  0  0  0  0  0  0  0  0
    1.4996   -1.1349   -2.1409 O   0  0  0  0  0  0  0  0  0  0  0  0
    1.8713    1.4496   -2.0504 O   0  0  0  0  0  0  0  0  0  0  0  0
    1.0694    3.0344    0.3371 O   0  0  0  0  0  0  0  0  0  0  0  0
   -4.0451    0.4603    1.5890 O   0  0  0  0  0  0  0  0  0  0  0  0
    2.5929   -1.0720    2.7034 O   0  0  0  0  0  0  0  0  0  0  0  0
   -1.2228   -0.8952   -0.5766 C   0  0  2  0  0  0  0  0  0  0  0  0
    0.1430   -1.3707   -0.1066 C   0  0  1  0  0  0  0  0  0  0  0  0
    1.2910   -0.6004   -0.8386 C   0  0  1  0  0  0  0  0  0  0  0  0
   -1.2874    0.6308   -0.4612 C   0  0  0  0  0  0  0  0  0  0  0  0
    1.0924    0.9571   -0.9416 C   0  0  2  0  0  0  0  0  0  0  0  0
    1.6630    1.7398    0.2778 C   0  0  2  0  0  0  0  0  0  0  0  0
    2.7390    1.8950    0.1250 H   0  0  0  0  0  0  0  0  0  0  0  0
   -1.9937   -0.6128   -2.3541 H   0  0  0  0  0  0  0  0  0  0  0  0
   -0.5731   -3.1899   -0.1872 H   0  0  0  0  0  0  0  0  0  0  0  0
    1.2291   -2.0682   -2.1322 H   0  0  0  0  0  0  0  0  0  0  0  0
    1.8272    0.7861   -2.7592 H   0  0  0  0  0  0  0  0  0  0  0  0
    1.7246    3.6338    0.7328 H   0  0  0  0  0  0  0  0  0  0  0  0
  1  4  1  0  0  0  0
  1  5  1  0  0  0  0
  1  6  1  0  0  0  0
  1 15  2  0  0  0  0
  2  7  1  0  0  0  0
  2  8  1  0  0  0  0
  2  9  1  0  0  0  0
  2 16  2  0  0  0  0
  3 20  1  0  0  0  0
  3 21  1  0  0  0  0
  4 17  1  0  0  0  0
  5 20  1  0  0  0  0
  6 20  1  0  0  0  0
  7 18  1  0  0  0  0
  8 19  1  0  0  0  0
  9 22  1  0  0  0  0
 10 17  1  0  0  0  0
 10 24  1  0  0  0  0
 11 18  1  0  0  0  0
 11 25  1  0  0  0  0
 12 19  1  0  0  0  0
 12 26  1  0  0  0  0
 13 21  1  0  0  0  0
 13 27  1  0  0  0  0
 14 22  1  0  0  0  0
 14 28  1  0  0  0  0
 17 18  1  0  0  0  0
 17 20  1  0  0  0  0
 18 19  1  0  0  0  0
 19 21  1  0  0  0  0
 21 22  1  0  0  0  0
 22 23  1  0  0  0  0
M  END
> <PUBCHEM_COMPOUND_CID>
129628138

> <PUBCHEM_CONFORMER_RMSD>
0.6

> <PUBCHEM_CONFORMER_DIVERSEORDER>
1

> <PUBCHEM_MMFF94_PARTIAL_CHARGES>
27
1 1.51
10 -0.68
11 -0.68
12 -0.68
13 -0.68
14 -0.68
15 -0.7
16 -0.7
17 0.56
18 0.56
19 0.56
2 1.51
20 0.77
21 0.56
22 0.56
24 0.4
25 0.4
26 0.4
27 0.4
28 0.4
3 -0.54
4 -0.55
5 -0.53
6 -0.53
7 -0.55
8 -0.55
9 -0.55

> <PUBCHEM_EFFECTIVE_ROTOR_COUNT>
1.6

> <PUBCHEM_PHARMACOPHORE_FEATURES>
16
1 10 acceptor
1 10 donor
1 11 acceptor
1 11 donor
1 12 acceptor
1 12 donor
1 13 acceptor
1 13 donor
1 14 acceptor
1 14 donor
1 15 acceptor
1 16 acceptor
1 3 acceptor
6 1 4 5 6 17 20 rings
6 3 17 18 19 20 21 rings
8 2 7 8 9 18 19 21 22 rings

> <PUBCHEM_HEAVY_ATOM_COUNT>
22

> <PUBCHEM_ATOM_DEF_STEREO_COUNT>
4

> <PUBCHEM_ATOM_UDEF_STEREO_COUNT>
2

> <PUBCHEM_BOND_DEF_STEREO_COUNT>
0

> <PUBCHEM_BOND_UDEF_STEREO_COUNT>
0

> <PUBCHEM_ISOTOPIC_ATOM_COUNT>
0

> <PUBCHEM_COMPONENT_COUNT>
1

> <PUBCHEM_CACTVS_TAUTO_COUNT>
1

> <PUBCHEM_CONFORMER_ID>
07B9F7EA00000001

> <PUBCHEM_MMFF94_ENERGY>
94.2235

> <PUBCHEM_FEATURE_SELFOVERLAP>
82.035

> <PUBCHEM_SHAPE_FINGERPRINT>
104564 63 17264711117603987525
10863032 1 18046659898638451846
10948715 1 17843132647027110656
11067466 332 17168727295994738009
11680611 10 18263067972051484227
12423570 1 18190757335793886590
12654903 92 17987820526057675901
12808571 1 17971489625937287660
13024252 1 15580303319008444266
13132413 78 18113891624995375020
13172582 1 18264467543100565730
13571099 52 15769482214159763034
141345 1 14358952552863669540
144361 1 18195553555679747684
14817 1 17337853268388667592
15775835 57 18263936581931838913
16945 1 18269255890248069691
18981168 100 17203339960897690723
20511035 2 17895456077599538149
22344851 12 18117869726298835700
23419403 2 15882041066352514327
23557571 272 16772375439119870519
2748010 2 18336275651236277423
430814 3 18046371835271716509
5845 1 18049694370632566222
81228 2 17107617264172188753

> <PUBCHEM_SHAPE_MULTIPOLES>
378.28
3.94
2.21
2.01
3.12
0.42
-0.16
0.34
-1.73
-0.87
0.17
-0.92
-0.34
-0.56

> <PUBCHEM_SHAPE_SELFOVERLAP>
835.971

> <PUBCHEM_SHAPE_VOLUME>
203.8

> <PUBCHEM_COORDINATE_TYPE>
2
5
10