129729803
  -OEChem-05072106003D

 26 25  0     1  0  0  0  0  0999 V2000
    0.4054   -0.5009   -1.6469 O   0  0  0  0  0  0  0  0  0  0  0  0
    1.9823    0.0749    1.6196 O   0  0  0  0  0  0  0  0  0  0  0  0
   -0.4960   -2.1441    0.5587 O   0  0  0  0  0  0  0  0  0  0  0  0
    4.2757   -0.0639    0.0223 O   0  0  0  0  0  0  0  0  0  0  0  0
    2.8381    1.6940   -0.5457 O   0  0  0  0  0  0  0  0  0  0  0  0
   -2.7813   -1.3614   -0.4455 O   0  0  0  0  0  0  0  0  0  0  0  0
   -2.5587    1.5826    1.2324 O   0  0  0  0  0  0  0  0  0  0  0  0
   -3.8208    1.1043   -0.6654 O   0  0  0  0  0  0  0  0  0  0  0  0
    0.4975   -0.1025   -0.2815 C   0  0  2  0  0  0  0  0  0  0  0  0
    1.9093   -0.3854    0.2703 C   0  0  1  0  0  0  0  0  0  0  0  0
   -0.6600   -0.7296    0.5147 C   0  0  1  0  0  0  0  0  0  0  0  0
    3.0211    0.2847   -0.5522 C   0  0  0  0  0  0  0  0  0  0  0  0
   -2.0622   -0.4498   -0.0304 C   0  0  0  0  0  0  0  0  0  0  0  0
   -2.5504    0.9972   -0.0505 C   0  0  0  0  0  0  0  0  0  0  0  0
    0.3468    0.9840   -0.2653 H   0  0  0  0  0  0  0  0  0  0  0  0
    2.0974   -1.4652    0.2878 H   0  0  0  0  0  0  0  0  0  0  0  0
   -0.6414   -0.3800    1.5523 H   0  0  0  0  0  0  0  0  0  0  0  0
    2.9944   -0.0781   -1.5859 H   0  0  0  0  0  0  0  0  0  0  0  0
   -0.4313   -0.1595   -2.0046 H   0  0  0  0  0  0  0  0  0  0  0  0
   -1.8483    1.5578   -0.6789 H   0  0  0  0  0  0  0  0  0  0  0  0
    1.8551    1.0391    1.6096 H   0  0  0  0  0  0  0  0  0  0  0  0
   -0.4344   -2.4625   -0.3583 H   0  0  0  0  0  0  0  0  0  0  0  0
    4.9429    0.0140   -0.6806 H   0  0  0  0  0  0  0  0  0  0  0  0
    3.2775    2.0428   -1.3397 H   0  0  0  0  0  0  0  0  0  0  0  0
   -1.8917    2.2899    1.2416 H   0  0  0  0  0  0  0  0  0  0  0  0
   -3.7192    1.6400   -1.4703 H   0  0  0  0  0  0  0  0  0  0  0  0
  1  9  1  0  0  0  0
  1 19  1  0  0  0  0
  2 10  1  0  0  0  0
  2 21  1  0  0  0  0
  3 11  1  0  0  0  0
  3 22  1  0  0  0  0
  4 12  1  0  0  0  0
  4 23  1  0  0  0  0
  5 12  1  0  0  0  0
  5 24  1  0  0  0  0
  6 13  2  0  0  0  0
  7 14  1  0  0  0  0
  7 25  1  0  0  0  0
  8 14  1  0  0  0  0
  8 26  1  0  0  0  0
  9 10  1  0  0  0  0
  9 11  1  0  0  0  0
  9 15  1  0  0  0  0
 10 12  1  0  0  0  0
 10 16  1  0  0  0  0
 11 13  1  0  0  0  0
 11 17  1  0  0  0  0
 12 18  1  0  0  0  0
 13 14  1  0  0  0  0
 14 20  1  0  0  0  0
M  END
> <PUBCHEM_COMPOUND_CID>
129729803

> <PUBCHEM_CONFORMER_RMSD>
0.6

> <PUBCHEM_CONFORMER_DIVERSEORDER>
1
203
63
198
99
163
280
161
268
145
263
180
110
281
58
81
4
121
23
75
310
168
17
134
253
338
56
334
53
8
282
54
184
275
50
269
217
46
272
76
267
247
80
139
225
342
39
290
26
68
213
87
171
313
206
115
218
330
114
224
93
236
86
38
234
90
169
316
286
41
327
82
91
117
233
159
323
250
34
260
111
214
230
258
160
7
231
226
311
257
32
147
277
95
332
122
227
189
237
123
21
238
287
331
222
279
321
283
73
299
14
92
285
288
36
325
37
307
296
119
89
67
266
137
11
33
96
312
49
255
228
317
215
128
30
130
28
243
152
295
116
52
55
204
141
324
129
322
241
13
308
148
61
337
261
278
113
97
170
59
202
15
284
20
294
57
320
328
197
179
305
219
72
306
200
240
136
201
167
16
252
47
292
9
172
333
6
62
43
190
329
187
242
71
265
276
83
344
301
271
103
155
64
31
274
249
40
44
138
229
70
239
256
102
314
210
289
309
51
65
94
183
205
3
245
319
153
29
22
165
69
273
196
181
177
157
246
98
151
188
124
118
185
156
207
345
48
221
104
195
192
101
109
158
223
135
35
27
335
244
291
5
216
24
45
186
174
126
248
343
315
199
125
302
112
77
175
339
143
142
10
270
105
84
25
298
326
251
140
297
212
120
220
293
341
232
209
194
340
42
235
166
178
336
18
131
12
133
164
300
193
88
208
144
262
127
254
304
154
2
78
60
303
66
191
259
146
100
107
132
19
318
79
149
74
150
211
85
106
108
162
176
173
182
264

> <PUBCHEM_MMFF94_PARTIAL_CHARGES>
21
1 -0.68
10 0.28
11 0.34
12 0.56
13 0.45
14 0.62
19 0.4
2 -0.68
21 0.4
22 0.4
23 0.4
24 0.4
25 0.4
26 0.4
3 -0.68
4 -0.68
5 -0.68
6 -0.57
7 -0.68
8 -0.68
9 0.28

> <PUBCHEM_EFFECTIVE_ROTOR_COUNT>
5

> <PUBCHEM_PHARMACOPHORE_FEATURES>
15
1 1 acceptor
1 1 donor
1 2 acceptor
1 2 donor
1 3 acceptor
1 3 donor
1 4 acceptor
1 4 donor
1 5 acceptor
1 5 donor
1 6 acceptor
1 7 acceptor
1 7 donor
1 8 acceptor
1 8 donor

> <PUBCHEM_HEAVY_ATOM_COUNT>
14

> <PUBCHEM_ATOM_DEF_STEREO_COUNT>
3

> <PUBCHEM_ATOM_UDEF_STEREO_COUNT>
0

> <PUBCHEM_BOND_DEF_STEREO_COUNT>
0

> <PUBCHEM_BOND_UDEF_STEREO_COUNT>
0

> <PUBCHEM_ISOTOPIC_ATOM_COUNT>
0

> <PUBCHEM_COMPONENT_COUNT>
1

> <PUBCHEM_CACTVS_TAUTO_COUNT>
4

> <PUBCHEM_CONFORMER_ID>
07BB850B00000001

> <PUBCHEM_MMFF94_ENERGY>
11.182

> <PUBCHEM_FEATURE_SELFOVERLAP>
76.342

> <PUBCHEM_SHAPE_FINGERPRINT>
12138202 97 18202281407496304119
12162725 195 18411704317675682892
124424 183 17847061060866435778
12491281 212 18260561029816025128
12897270 3 16845287229043316505
12932764 1 17095794482227301270
13839132 238 18200604596386847789
14144814 61 18040995163414088362
14325111 11 18334858328865698358
14993402 34 17749101227250873063
15775835 57 18040715844511122677
16945 1 17775559858024067747
18186145 218 18341061704823934966
18534176 82 18060418032335169991
20361792 2 10519692368021745227
20653085 51 18342190937657073739
20711983 171 18410578400646928484
21256008 23 15647062559769628980
21293036 1 15697995236718473556
21524375 3 18410293579869672943
23402539 116 18343296003062809071
23557571 272 17988927807898598655
305870 269 18187928305313547523
3248919 1 18335696178470048834
57812782 119 17203605990960891006

> <PUBCHEM_SHAPE_MULTIPOLES>
241.16
6.26
1.54
1.11
1.58
0.11
-0.09
-2.27
0.43
-0.81
-0.13
0.09
-0.07
-0.38

> <PUBCHEM_SHAPE_SELFOVERLAP>
465.096

> <PUBCHEM_SHAPE_VOLUME>
143.7

> <PUBCHEM_COORDINATE_TYPE>
2
5
10