129717006
  -OEChem-05072106003D

 31 30  0     1  0  0  0  0  0999 V2000
   -2.3838   -1.2028    1.6461 O   0  0  0  0  0  0  0  0  0  0  0  0
   -1.9317   -1.8770   -0.9546 O   0  0  0  0  0  0  0  0  0  0  0  0
   -4.2033   -0.3518   -0.3465 O   0  0  0  0  0  0  0  0  0  0  0  0
   -4.3569    2.6614   -0.4170 O   0  0  0  0  0  0  0  0  0  0  0  0
    0.5797   -2.2106   -0.1929 O   0  0  0  0  0  0  0  0  0  0  0  0
    5.6061    1.5162    0.3132 O   0  0  0  0  0  0  0  0  0  0  0  0
    5.0100   -0.4522   -0.6521 O   0  0  0  0  0  0  0  0  0  0  0  0
    2.4154   -0.1688   -0.0618 N   0  0  0  0  0  0  0  0  0  0  0  0
   -2.0604   -0.1381    0.7418 C   0  0  1  0  0  0  0  0  0  0  0  0
   -1.2904   -0.7131   -0.4551 C   0  0  1  0  0  0  0  0  0  0  0  0
   -3.3744    0.5733    0.3673 C   0  0  1  0  0  0  0  0  0  0  0  0
    0.1600   -1.0554   -0.1118 C   0  0  0  0  0  0  0  0  0  0  0  0
   -3.2082    1.8258   -0.4925 C   0  0  0  0  0  0  0  0  0  0  0  0
    1.0389    0.1013    0.3286 C   0  0  0  0  0  0  0  0  0  0  0  0
    3.2971    0.9144    0.3522 C   0  0  0  0  0  0  0  0  0  0  0  0
    4.7019    0.5773   -0.0650 C   0  0  0  0  0  0  0  0  0  0  0  0
   -1.4438    0.5765    1.2977 H   0  0  0  0  0  0  0  0  0  0  0  0
   -1.2435    0.0094   -1.2765 H   0  0  0  0  0  0  0  0  0  0  0  0
   -3.9242    0.8271    1.2819 H   0  0  0  0  0  0  0  0  0  0  0  0
   -3.0565    1.5659   -1.5451 H   0  0  0  0  0  0  0  0  0  0  0  0
   -2.3562    2.4168   -0.1415 H   0  0  0  0  0  0  0  0  0  0  0  0
    0.9452    0.1984    1.4152 H   0  0  0  0  0  0  0  0  0  0  0  0
    0.6833    1.0192   -0.1521 H   0  0  0  0  0  0  0  0  0  0  0  0
   -1.5467   -1.5986    1.9428 H   0  0  0  0  0  0  0  0  0  0  0  0
   -2.0344   -2.4998   -0.2148 H   0  0  0  0  0  0  0  0  0  0  0  0
    2.4625   -0.2724   -1.0758 H   1  0  0  0  0  0  0  0  0  0  0  0
   -4.3085   -1.1398    0.2137 H   0  0  0  0  0  0  0  0  0  0  0  0
    3.2837    1.0249    1.4416 H   0  0  0  0  0  0  0  0  0  0  0  0
    3.0114    1.8568   -0.1269 H   0  0  0  0  0  0  0  0  0  0  0  0
   -4.1835    3.4369   -0.9774 H   0  0  0  0  0  0  0  0  0  0  0  0
    6.5190    1.2722    0.0498 H   0  0  0  0  0  0  0  0  0  0  0  0
  1  9  1  0  0  0  0
  1 24  1  0  0  0  0
  2 10  1  0  0  0  0
  2 25  1  0  0  0  0
  3 11  1  0  0  0  0
  3 27  1  0  0  0  0
  4 13  1  0  0  0  0
  4 30  1  0  0  0  0
  5 12  2  0  0  0  0
  6 16  1  0  0  0  0
  6 31  1  0  0  0  0
  7 16  2  0  0  0  0
  8 14  1  0  0  0  0
  8 15  1  0  0  0  0
  8 26  1  0  0  0  0
  9 10  1  0  0  0  0
  9 11  1  0  0  0  0
  9 17  1  0  0  0  0
 10 12  1  0  0  0  0
 10 18  1  0  0  0  0
 11 13  1  0  0  0  0
 11 19  1  0  0  0  0
 12 14  1  0  0  0  0
 13 20  1  0  0  0  0
 13 21  1  0  0  0  0
 14 22  1  0  0  0  0
 14 23  1  0  0  0  0
 15 16  1  0  0  0  0
 15 28  1  0  0  0  0
 15 29  1  0  0  0  0
M  ISO  1  26   2
M  END
> <PUBCHEM_COMPOUND_CID>
129717006

> <PUBCHEM_CONFORMER_RMSD>
0.8

> <PUBCHEM_CONFORMER_DIVERSEORDER>
1
101
74
21
86
83
6
19
94
59
105
81
89
106
85
42
36
63
96
92
50
67
100
107
4
87
76
71
72
75
82
91
70
14
69
102
25
18
98
43
108
26
66
27
29
52
99
34
39
95
93
9
7
79
35
38
37
78
28
2
15
53
60
77
40
104
13
51
5
41
97
90
47
73
45
8
20
31
33
62
58
16
84
65
56
61
54
68
22
88
48
49
55
23
11
10
32
80
3
64
46
30
103
12
17
24
44
57

> <PUBCHEM_MMFF94_PARTIAL_CHARGES>
22
1 -0.68
10 0.34
11 0.28
12 0.45
13 0.28
14 0.33
15 0.33
16 0.66
2 -0.68
24 0.4
25 0.4
26 0.36
27 0.4
3 -0.68
30 0.4
31 0.5
4 -0.68
5 -0.57
6 -0.65
7 -0.57
8 -0.9
9 0.28

> <PUBCHEM_EFFECTIVE_ROTOR_COUNT>
8

> <PUBCHEM_PHARMACOPHORE_FEATURES>
14
1 1 acceptor
1 1 donor
1 2 acceptor
1 2 donor
1 3 acceptor
1 3 donor
1 4 acceptor
1 4 donor
1 5 acceptor
1 6 acceptor
1 7 acceptor
1 8 cation
1 8 donor
3 6 7 16 anion

> <PUBCHEM_HEAVY_ATOM_COUNT>
16

> <PUBCHEM_ATOM_DEF_STEREO_COUNT>
3

> <PUBCHEM_ATOM_UDEF_STEREO_COUNT>
0

> <PUBCHEM_BOND_DEF_STEREO_COUNT>
0

> <PUBCHEM_BOND_UDEF_STEREO_COUNT>
0

> <PUBCHEM_ISOTOPIC_ATOM_COUNT>
1

> <PUBCHEM_COMPONENT_COUNT>
1

> <PUBCHEM_CACTVS_TAUTO_COUNT>
11

> <PUBCHEM_CONFORMER_ID>
07BB530E00000001

> <PUBCHEM_MMFF94_ENERGY>
22.9992

> <PUBCHEM_FEATURE_SELFOVERLAP>
71.146

> <PUBCHEM_SHAPE_FINGERPRINT>
10014705 185 18272930570252059000
10680689 15 18338804515100703666
122479 349 18333732386236049025
12916748 109 18409732902032988074
13214271 11 18187367653167402023
13675066 3 18337399322260821458
13740256 8 9367053476331322604
14123255 352 18408882910577697564
14123255 52 18411134727760772634
14251752 14 18335712607547923838
14251764 75 17337601046720535105
14252887 29 12901545711454542304
15279308 16 18334301937749409315
15501527 16 18412266112383498633
17834072 32 18411136918041645460
17834072 8 18202291273489473830
18186145 218 17846506967172456738
200 152 14692577623946532034
20112054 13 18334575759046769670
20281389 69 18410290350740432584
20374829 77 11239705367270074893
20645477 56 18129664222216573402
20645477 70 17203060616720689806
231179 274 18342460318280126974
23402539 116 15626229000218729593
23402655 69 17917990538261769829
23403322 49 9943807785238617268
23559900 14 18050564049913240386
26918003 58 7997974561235132846
27216 239 18334296495872786441
2838139 119 18265321820812736685
4028521 119 18202282498228014952
57265010 4 17167866395480479161
59682541 35 18188221927550145769
633830 44 18040716983210264542
6430166 295 18411134736630314568
90127 26 18335430088435360376

> <PUBCHEM_SHAPE_MULTIPOLES>
283.21
10.71
2.05
0.9
11.67
0.42
0.19
6.36
-0.63
-1.83
-0.35
-0.5
-0.22
0.72

> <PUBCHEM_SHAPE_SELFOVERLAP>
544.836

> <PUBCHEM_SHAPE_VOLUME>
171

> <PUBCHEM_COORDINATE_TYPE>
2
5
10