129715283
  -OEChem-05072106003D

 34 34  0     1  0  0  0  0  0999 V2000
   -0.5554   -0.7469    0.3778 O   0  0  0  0  0  0  0  0  0  0  0  0
   -2.9259    0.4025    1.7365 O   0  0  0  0  0  0  0  0  0  0  0  0
   -2.1186    1.9136   -1.4713 O   0  0  0  0  0  0  0  0  0  0  0  0
   -1.9457   -0.9477   -1.5284 O   0  0  0  0  0  0  0  0  0  0  0  0
    1.4714    0.4030    0.4731 O   0  0  0  0  0  0  0  0  0  0  0  0
    0.1225    2.8229   -0.1730 O   0  0  0  0  0  0  0  0  0  0  0  0
   -1.7149   -3.2194    0.0510 O   0  0  0  0  0  0  0  0  0  0  0  0
    2.1550   -1.1289   -1.1094 O   0  0  0  0  0  0  0  0  0  0  0  0
    4.6446   -1.1570   -0.1055 O   0  0  0  0  0  0  0  0  0  0  0  0
   -2.7147    0.4018    0.3253 C   0  0  1  0  0  0  0  0  0  0  0  0
   -2.0117    1.7082   -0.0625 C   0  0  1  0  0  0  0  0  0  0  0  0
   -1.9033   -0.8428   -0.1023 C   0  0  2  0  0  0  0  0  0  0  0  0
   -0.5412    1.6827    0.3637 C   0  0  1  0  0  0  0  0  0  0  0  0
    0.1572    0.3994   -0.0864 C   0  0  2  0  0  0  0  0  0  0  0  0
   -2.4958   -2.1250    0.4894 C   0  0  0  0  0  0  0  0  0  0  0  0
    2.3790   -0.4138   -0.1413 C   0  0  0  0  0  0  0  0  0  0  0  0
    3.7282   -0.2837    0.5360 C   0  0  2  0  0  0  0  0  0  0  0  0
    4.2692    1.1311    0.4275 C   0  0  0  0  0  0  0  0  0  0  0  0
   -3.6999    0.3611   -0.1564 H   0  0  0  0  0  0  0  0  0  0  0  0
   -2.4978    2.5681    0.4141 H   0  0  0  0  0  0  0  0  0  0  0  0
   -0.4797    1.7527    1.4572 H   0  0  0  0  0  0  0  0  0  0  0  0
    0.2327    0.3858   -1.1819 H   0  0  0  0  0  0  0  0  0  0  0  0
   -3.5238   -2.2795    0.1460 H   0  0  0  0  0  0  0  0  0  0  0  0
   -2.4677   -2.1166    1.5834 H   0  0  0  0  0  0  0  0  0  0  0  0
   -3.4832    1.1701    1.9501 H   0  0  0  0  0  0  0  0  0  0  0  0
   -3.0651    1.9524   -1.6908 H   0  0  0  0  0  0  0  0  0  0  0  0
   -1.8020   -1.8789   -1.7673 H   0  0  0  0  0  0  0  0  0  0  0  0
   -0.3460    3.6128    0.1468 H   0  0  0  0  0  0  0  0  0  0  0  0
   -2.1078   -4.0239    0.4304 H   0  0  0  0  0  0  0  0  0  0  0  0
    3.6384   -0.5919    1.5828 H   0  0  0  0  0  0  0  0  0  0  0  0
    4.3414    1.4430   -0.6208 H   0  0  0  0  0  0  0  0  0  0  0  0
    5.2792    1.1900    0.8472 H   0  0  0  0  0  0  0  0  0  0  0  0
    3.6318    1.8498    0.9518 H   0  0  0  0  0  0  0  0  0  0  0  0
    4.3431   -2.0675    0.0557 H   0  0  0  0  0  0  0  0  0  0  0  0
  1 12  1  0  0  0  0
  1 14  1  0  0  0  0
  2 10  1  0  0  0  0
  2 25  1  0  0  0  0
  3 11  1  0  0  0  0
  3 26  1  0  0  0  0
  4 12  1  0  0  0  0
  4 27  1  0  0  0  0
  5 14  1  0  0  0  0
  5 16  1  0  0  0  0
  6 13  1  0  0  0  0
  6 28  1  0  0  0  0
  7 15  1  0  0  0  0
  7 29  1  0  0  0  0
  8 16  2  0  0  0  0
  9 17  1  0  0  0  0
  9 34  1  0  0  0  0
 10 11  1  0  0  0  0
 10 12  1  0  0  0  0
 10 19  1  0  0  0  0
 11 13  1  0  0  0  0
 11 20  1  0  0  0  0
 12 15  1  0  0  0  0
 13 14  1  0  0  0  0
 13 21  1  0  0  0  0
 14 22  1  0  0  0  0
 15 23  1  0  0  0  0
 15 24  1  0  0  0  0
 16 17  1  0  0  0  0
 17 18  1  0  0  0  0
 17 30  1  0  0  0  0
 18 31  1  0  0  0  0
 18 32  1  0  0  0  0
 18 33  1  0  0  0  0
M  END
> <PUBCHEM_COMPOUND_CID>
129715283

> <PUBCHEM_CONFORMER_RMSD>
0.8

> <PUBCHEM_CONFORMER_DIVERSEORDER>
2
24
85
74
88
50
16
64
51
81
82
90
91
6
58
44
87
70
25
80
27
4
45
28
38
68
33
66
23
37
9
86
52
92
55
48
17
65
62
1
8
56
76
47
26
67
34
69
54
84
72
75
12
3
22
32
14
79
49
29
11
20
21
31
73
77
71
18
36
41
10
89
43
59
5
42
39
63
61
40
53
15
13
46
78
19
7
30
93
35
83
60
57

> <PUBCHEM_MMFF94_PARTIAL_CHARGES>
23
1 -0.56
10 0.28
11 0.28
12 0.56
13 0.28
14 0.56
15 0.28
16 0.66
17 0.34
2 -0.68
25 0.4
26 0.4
27 0.4
28 0.4
29 0.4
3 -0.68
34 0.4
4 -0.68
5 -0.43
6 -0.68
7 -0.68
8 -0.57
9 -0.68

> <PUBCHEM_EFFECTIVE_ROTOR_COUNT>
5.2

> <PUBCHEM_PHARMACOPHORE_FEATURES>
15
1 1 acceptor
1 2 acceptor
1 2 donor
1 3 acceptor
1 3 donor
1 4 acceptor
1 4 donor
1 6 acceptor
1 6 donor
1 7 acceptor
1 7 donor
1 8 acceptor
1 9 acceptor
1 9 donor
6 1 10 11 12 13 14 rings

> <PUBCHEM_HEAVY_ATOM_COUNT>
18

> <PUBCHEM_ATOM_DEF_STEREO_COUNT>
4

> <PUBCHEM_ATOM_UDEF_STEREO_COUNT>
2

> <PUBCHEM_BOND_DEF_STEREO_COUNT>
0

> <PUBCHEM_BOND_UDEF_STEREO_COUNT>
0

> <PUBCHEM_ISOTOPIC_ATOM_COUNT>
0

> <PUBCHEM_COMPONENT_COUNT>
1

> <PUBCHEM_CACTVS_TAUTO_COUNT>
1

> <PUBCHEM_CONFORMER_ID>
07BB4C5300000002

> <PUBCHEM_MMFF94_ENERGY>
37.9342

> <PUBCHEM_FEATURE_SELFOVERLAP>
76.206

> <PUBCHEM_SHAPE_FINGERPRINT>
10989021 7 18193556889950953305
11132069 177 18341886394812137968
12382932 28 18342462538525102434
12500047 106 18190453870864123646
12969540 114 18190443983997660405
13024252 1 17095525072045879049
13214271 11 18343299305628655372
13296908 3 18343302574362635098
14289901 80 18114177566880349080
16945 1 18268168551111583033
18186145 218 18342460318570218850
200 152 17346302830691165685
20510252 161 18199470965454989809
20645476 183 17823696374056280789
20871998 184 18273498991614065911
20871999 31 18338220614212494821
21339142 51 18409442575028765476
21501502 16 18193848256137269273
22213442 358 18266176313034920664
23402539 116 18342447119887792125
23419403 2 17486464243994860113
23557571 272 18343308067625923828
23559900 14 18340761530451187122
2748010 2 18270669978413582352
5104073 3 18343298180901249122
6333449 129 18340765940517488556
81228 2 18411429383812766833
8809292 202 18412546492259346474
9709674 26 18271244920216680102

> <PUBCHEM_SHAPE_MULTIPOLES>
317.61
6.66
2.62
1.05
8.72
0.35
0.1
1.28
-0.87
-1.75
0.23
-0.65
-0.08
0.45

> <PUBCHEM_SHAPE_SELFOVERLAP>
642.704

> <PUBCHEM_SHAPE_VOLUME>
181.9

> <PUBCHEM_COORDINATE_TYPE>
2
5
10