129717685
  -OEChem-05072106003D

 30 30  0     1  0  0  0  0  0999 V2000
   -0.6914    1.1263    0.8944 O   0  0  0  0  0  0  0  0  0  0  0  0
    0.2143   -1.5688    1.2760 O   0  0  0  0  0  0  0  0  0  0  0  0
    2.0799   -1.4662   -0.8152 O   0  0  0  0  0  0  0  0  0  0  0  0
    2.0965    0.4377    1.2803 O   0  0  0  0  0  0  0  0  0  0  0  0
   -2.2935   -0.5529    1.0528 O   0  0  0  0  0  0  0  0  0  0  0  0
   -2.9246    1.4601   -0.7337 O   0  0  0  0  0  0  0  0  0  0  0  0
   -0.2004   -1.0899   -0.0152 C   0  0  2  0  0  0  0  0  0  0  0  0
    1.0414   -0.4927   -0.7129 C   0  0  1  0  0  0  0  0  0  0  0  0
    1.5633    0.7732   -0.0050 C   0  0  1  0  0  0  0  0  0  0  0  0
   -1.2764    0.0096    0.2079 C   0  0  2  0  0  0  0  0  0  0  0  0
    0.4091    1.7518    0.2307 C   0  0  0  0  0  0  0  0  0  0  0  0
   -0.7290   -2.3126   -0.7777 C   0  0  0  0  0  0  0  0  0  0  0  0
    2.6825    1.4480   -0.8024 C   0  0  0  0  0  0  0  0  0  0  0  0
   -1.9717    0.4765   -1.0799 C   0  0  0  0  0  0  0  0  0  0  0  0
    0.7613   -0.2315   -1.7418 H   0  0  0  0  0  0  0  0  0  0  0  0
    0.7327    2.5694    0.8851 H   0  0  0  0  0  0  0  0  0  0  0  0
    0.0670    2.2119   -0.7020 H   0  0  0  0  0  0  0  0  0  0  0  0
   -1.6189   -2.7258   -0.2902 H   0  0  0  0  0  0  0  0  0  0  0  0
    0.0103   -3.1219   -0.7894 H   0  0  0  0  0  0  0  0  0  0  0  0
   -0.9801   -2.0721   -1.8151 H   0  0  0  0  0  0  0  0  0  0  0  0
    3.5741    0.8140   -0.8546 H   0  0  0  0  0  0  0  0  0  0  0  0
    3.0011    2.3771   -0.3153 H   0  0  0  0  0  0  0  0  0  0  0  0
    2.3622    1.6896   -1.8210 H   0  0  0  0  0  0  0  0  0  0  0  0
   -2.5172   -0.3459   -1.5530 H   0  0  0  0  0  0  0  0  0  0  0  0
   -1.2817    0.9070   -1.8092 H   0  0  0  0  0  0  0  0  0  0  0  0
    0.9464   -2.1946    1.1408 H   0  0  0  0  0  0  0  0  0  0  0  0
    2.7383   -1.1348   -1.4484 H   0  0  0  0  0  0  0  0  0  0  0  0
    2.4296    1.2524    1.6938 H   0  0  0  0  0  0  0  0  0  0  0  0
   -3.1062   -0.0333    0.9324 H   0  0  0  0  0  0  0  0  0  0  0  0
   -3.3643    1.7381   -1.5552 H   0  0  0  0  0  0  0  0  0  0  0  0
  1 10  1  0  0  0  0
  1 11  1  0  0  0  0
  2  7  1  0  0  0  0
  2 26  1  0  0  0  0
  3  8  1  0  0  0  0
  3 27  1  0  0  0  0
  4  9  1  0  0  0  0
  4 28  1  0  0  0  0
  5 10  1  0  0  0  0
  5 29  1  0  0  0  0
  6 14  1  0  0  0  0
  6 30  1  0  0  0  0
  7  8  1  0  0  0  0
  7 10  1  0  0  0  0
  7 12  1  0  0  0  0
  8  9  1  0  0  0  0
  8 15  1  0  0  0  0
  9 11  1  0  0  0  0
  9 13  1  0  0  0  0
 10 14  1  0  0  0  0
 11 16  1  0  0  0  0
 11 17  1  0  0  0  0
 12 18  1  0  0  0  0
 12 19  1  0  0  0  0
 12 20  1  0  0  0  0
 13 21  1  0  0  0  0
 13 22  1  0  0  0  0
 13 23  1  0  0  0  0
 14 24  1  0  0  0  0
 14 25  1  0  0  0  0
M  END
> <PUBCHEM_COMPOUND_CID>
129717685

> <PUBCHEM_CONFORMER_RMSD>
0.6

> <PUBCHEM_CONFORMER_DIVERSEORDER>
1
3
2

> <PUBCHEM_MMFF94_PARTIAL_CHARGES>
17
1 -0.56
10 0.56
11 0.28
14 0.28
2 -0.68
26 0.4
27 0.4
28 0.4
29 0.4
3 -0.68
30 0.4
4 -0.68
5 -0.68
6 -0.68
7 0.28
8 0.28
9 0.28

> <PUBCHEM_EFFECTIVE_ROTOR_COUNT>
2.2

> <PUBCHEM_PHARMACOPHORE_FEATURES>
12
1 1 acceptor
1 2 acceptor
1 2 donor
1 3 acceptor
1 3 donor
1 4 acceptor
1 4 donor
1 5 acceptor
1 5 donor
1 6 acceptor
1 6 donor
6 1 7 8 9 10 11 rings

> <PUBCHEM_HEAVY_ATOM_COUNT>
14

> <PUBCHEM_ATOM_DEF_STEREO_COUNT>
4

> <PUBCHEM_ATOM_UDEF_STEREO_COUNT>
0

> <PUBCHEM_BOND_DEF_STEREO_COUNT>
0

> <PUBCHEM_BOND_UDEF_STEREO_COUNT>
0

> <PUBCHEM_ISOTOPIC_ATOM_COUNT>
0

> <PUBCHEM_COMPONENT_COUNT>
1

> <PUBCHEM_CACTVS_TAUTO_COUNT>
1

> <PUBCHEM_CONFORMER_ID>
07BB55B500000001

> <PUBCHEM_MMFF94_ENERGY>
49.9921

> <PUBCHEM_FEATURE_SELFOVERLAP>
60.998

> <PUBCHEM_SHAPE_FINGERPRINT>
11206711 2 17981606283969220262
12138202 97 18339074998971111702
12423570 1 18193004939313675665
13024252 1 16879907701764133936
13571099 52 18267841969945458493
14614273 12 18124030397375973870
14817 1 16808171113508348715
15310529 11 17531525511265498688
15775835 57 18262517108162167309
16945 1 18198338648766325061
17844478 74 17970929953191489203
21040471 1 18341325673482324468
21922407 69 16373256063842430948
21947302 44 17971461910819483117
23235685 24 18199481011277752864
23419403 2 12733618335378185560
241688 4 18053394201464036752
25 1 18192436268712093405
2748010 2 18340216210351929277
369184 2 17241319321340048624
5084963 1 17970090918250375175
5255222 1 18198349660999083927
528886 8 17988096606660911986
63268167 104 18202003204978574509

> <PUBCHEM_SHAPE_MULTIPOLES>
252.9
3.31
2.09
1.18
0.26
0.58
-0.15
-1.28
0.59
-0.27
0.32
-0.05
0.08
0.22

> <PUBCHEM_SHAPE_SELFOVERLAP>
513.528

> <PUBCHEM_SHAPE_VOLUME>
145.9

> <PUBCHEM_COORDINATE_TYPE>
2
5
10