129722067
  -OEChem-05072106003D

 44 46  0     1  0  0  0  0  0999 V2000
    1.8931   -1.3046    0.6400 O   0  0  0  0  0  0  0  0  0  0  0  0
   -1.5816   -0.4507    1.4020 O   0  0  0  0  0  0  0  0  0  0  0  0
   -0.4760   -0.4745   -1.8610 O   0  0  0  0  0  0  0  0  0  0  0  0
    1.4972    1.5983   -1.6296 O   0  0  0  0  0  0  0  0  0  0  0  0
   -0.6700   -2.1385    0.0399 O   0  0  0  0  0  0  0  0  0  0  0  0
    2.6512    2.1699    0.8834 O   0  0  0  0  0  0  0  0  0  0  0  0
    3.5395    0.0440   -0.3429 O   0  0  0  0  0  0  0  0  0  0  0  0
    2.2446    0.4918    2.8306 O   0  0  0  0  0  0  0  0  0  0  0  0
   -1.2891    2.1137   -1.7490 O   0  0  0  0  0  0  0  0  0  0  0  0
   -3.7290    1.7074   -0.3935 O   0  0  0  0  0  0  0  0  0  0  0  0
    3.2064   -2.3950   -1.5135 O   0  0  0  0  0  0  0  0  0  0  0  0
   -4.9101   -1.1966    0.0898 O   0  0  0  0  0  0  0  0  0  0  0  0
   -0.2808    0.2085   -0.6111 C   0  0  2  0  0  0  0  0  0  0  0  0
    1.2068    0.7309   -0.5417 C   0  0  2  0  0  0  0  0  0  0  0  0
   -0.4893   -0.8150    0.5519 C   0  0  1  0  0  0  0  0  0  0  0  0
    0.7889   -0.8201    1.4307 C   0  0  2  0  0  0  0  0  0  0  0  0
    1.3783    1.5365    0.7844 C   0  0  1  0  0  0  0  0  0  0  0  0
    2.2102   -0.4764   -0.4956 C   0  0  2  0  0  0  0  0  0  0  0  0
    1.1184    0.5859    1.9656 C   0  0  2  0  0  0  0  0  0  0  0  0
   -1.3651    1.3146   -0.5702 C   0  0  2  0  0  0  0  0  0  0  0  0
   -2.7475    0.6713   -0.4724 C   0  0  1  0  0  0  0  0  0  0  0  0
   -2.8464   -0.2094    0.7810 C   0  0  1  0  0  0  0  0  0  0  0  0
    2.2463   -1.3802   -1.7322 C   0  0  0  0  0  0  0  0  0  0  0  0
   -3.5961   -1.5116    0.5134 C   0  0  0  0  0  0  0  0  0  0  0  0
    0.6773   -1.5192    2.2680 H   0  0  0  0  0  0  0  0  0  0  0  0
    0.6703    2.3682    0.8102 H   0  0  0  0  0  0  0  0  0  0  0  0
    0.2828    0.9696    2.5620 H   0  0  0  0  0  0  0  0  0  0  0  0
   -1.2385    1.9909    0.2796 H   0  0  0  0  0  0  0  0  0  0  0  0
   -2.9843    0.1164   -1.3863 H   0  0  0  0  0  0  0  0  0  0  0  0
   -3.4330    0.3315    1.5352 H   0  0  0  0  0  0  0  0  0  0  0  0
    2.5364   -0.8223   -2.6276 H   0  0  0  0  0  0  0  0  0  0  0  0
    1.3044   -1.8999   -1.9042 H   0  0  0  0  0  0  0  0  0  0  0  0
   -1.2178   -1.0943   -1.7609 H   0  0  0  0  0  0  0  0  0  0  0  0
    1.2603    1.1335   -2.4498 H   0  0  0  0  0  0  0  0  0  0  0  0
   -0.3608   -2.7714    0.7091 H   0  0  0  0  0  0  0  0  0  0  0  0
    2.7010    2.5864    1.7607 H   0  0  0  0  0  0  0  0  0  0  0  0
    4.1698   -0.6388   -0.6278 H   0  0  0  0  0  0  0  0  0  0  0  0
    2.0079   -0.1086    3.5579 H   0  0  0  0  0  0  0  0  0  0  0  0
   -2.0146    2.7600   -1.7098 H   0  0  0  0  0  0  0  0  0  0  0  0
   -3.6434   -2.1229    1.4208 H   0  0  0  0  0  0  0  0  0  0  0  0
   -3.1161   -2.1069   -0.2680 H   0  0  0  0  0  0  0  0  0  0  0  0
   -3.5224    2.2616    0.3784 H   0  0  0  0  0  0  0  0  0  0  0  0
    3.2274   -2.9499   -2.3118 H   0  0  0  0  0  0  0  0  0  0  0  0
   -5.3704   -2.0386   -0.0668 H   0  0  0  0  0  0  0  0  0  0  0  0
  1 16  1  0  0  0  0
  1 18  1  0  0  0  0
  2 15  1  0  0  0  0
  2 22  1  0  0  0  0
  3 13  1  0  0  0  0
  3 33  1  0  0  0  0
  4 14  1  0  0  0  0
  4 34  1  0  0  0  0
  5 15  1  0  0  0  0
  5 35  1  0  0  0  0
  6 17  1  0  0  0  0
  6 36  1  0  0  0  0
  7 18  1  0  0  0  0
  7 37  1  0  0  0  0
  8 19  1  0  0  0  0
  8 38  1  0  0  0  0
  9 20  1  0  0  0  0
  9 39  1  0  0  0  0
 10 21  1  0  0  0  0
 10 42  1  0  0  0  0
 11 23  1  0  0  0  0
 11 43  1  0  0  0  0
 12 24  1  0  0  0  0
 12 44  1  0  0  0  0
 13 14  1  0  0  0  0
 13 15  1  0  0  0  0
 13 20  1  0  0  0  0
 14 17  1  0  0  0  0
 14 18  1  0  0  0  0
 15 16  1  0  0  0  0
 16 19  1  0  0  0  0
 16 25  1  0  0  0  0
 17 19  1  0  0  0  0
 17 26  1  0  0  0  0
 18 23  1  0  0  0  0
 19 27  1  0  0  0  0
 20 21  1  0  0  0  0
 20 28  1  0  0  0  0
 21 22  1  0  0  0  0
 21 29  1  0  0  0  0
 22 24  1  0  0  0  0
 22 30  1  0  0  0  0
 23 31  1  0  0  0  0
 23 32  1  0  0  0  0
 24 40  1  0  0  0  0
 24 41  1  0  0  0  0
M  END
> <PUBCHEM_COMPOUND_CID>
129722067

> <PUBCHEM_CONFORMER_RMSD>
0.6

> <PUBCHEM_CONFORMER_DIVERSEORDER>
1
2

> <PUBCHEM_MMFF94_PARTIAL_CHARGES>
34
1 -0.56
10 -0.68
11 -0.68
12 -0.68
13 0.28
14 0.28
15 0.56
16 0.28
17 0.28
18 0.56
19 0.28
2 -0.56
20 0.28
21 0.28
22 0.28
23 0.28
24 0.28
3 -0.68
33 0.4
34 0.4
35 0.4
36 0.4
37 0.4
38 0.4
39 0.4
4 -0.68
42 0.4
43 0.4
44 0.4
5 -0.68
6 -0.68
7 -0.68
8 -0.68
9 -0.68

> <PUBCHEM_EFFECTIVE_ROTOR_COUNT>
3.6

> <PUBCHEM_PHARMACOPHORE_FEATURES>
24
1 1 acceptor
1 10 acceptor
1 10 donor
1 11 acceptor
1 11 donor
1 12 acceptor
1 12 donor
1 2 acceptor
1 3 acceptor
1 3 donor
1 4 acceptor
1 4 donor
1 5 acceptor
1 5 donor
1 6 acceptor
1 6 donor
1 7 acceptor
1 7 donor
1 8 acceptor
1 8 donor
1 9 acceptor
1 9 donor
6 2 13 15 20 21 22 rings
8 1 13 14 15 16 17 18 19 rings

> <PUBCHEM_HEAVY_ATOM_COUNT>
24

> <PUBCHEM_ATOM_DEF_STEREO_COUNT>
8

> <PUBCHEM_ATOM_UDEF_STEREO_COUNT>
2

> <PUBCHEM_BOND_DEF_STEREO_COUNT>
0

> <PUBCHEM_BOND_UDEF_STEREO_COUNT>
0

> <PUBCHEM_ISOTOPIC_ATOM_COUNT>
0

> <PUBCHEM_COMPONENT_COUNT>
1

> <PUBCHEM_CACTVS_TAUTO_COUNT>
1

> <PUBCHEM_CONFORMER_ID>
07BB66D300000001

> <PUBCHEM_MMFF94_ENERGY>
118.5077

> <PUBCHEM_FEATURE_SELFOVERLAP>
122.066

> <PUBCHEM_SHAPE_FINGERPRINT>
10863032 1 18339371759794509260
10948715 1 18198058286371039856
11315181 36 15793458148780850998
11578080 2 18272371932034846720
12423570 1 18190761901613023822
12491281 212 16372160722522346030
12808571 1 15936990564552352098
13134695 92 16988275357460604864
13140716 1 17968648333799981505
13224815 77 18114175363498802937
13538477 17 17022896818240060961
13583140 156 17131826573760370985
14289901 80 17846216717619674011
144361 1 17749683891035396840
14787075 74 16159650693056209969
16752209 62 17458059357428720991
16945 1 17985017957097362898
18981168 100 18263626450996457573
19765921 60 15337414929532515418
20691752 17 17167584890697628677
22112679 90 17241037713166500425
23175994 123 17701831989875216702
23419403 2 17270294515587057960
23526113 38 18198336252374975724
23557571 272 18410570708682326281
23559900 14 18259982643670968895
2748010 2 18259988188769205517
3286 77 17846506919774958939
394222 165 15337974529548823034
4340502 62 17201923841371350515
9981440 41 16520796196933218956

> <PUBCHEM_SHAPE_MULTIPOLES>
423.48
5.7
2.11
1.95
4.74
0.1
0.44
1.32
-0.16
-0.53
-0.54
-1.13
-0.3
1.45

> <PUBCHEM_SHAPE_SELFOVERLAP>
915.673

> <PUBCHEM_SHAPE_VOLUME>
223.2

> <PUBCHEM_COORDINATE_TYPE>
2
5
10