129714520
  -OEChem-05072106003D

 53 53  0     1  0  0  0  0  0999 V2000
   -2.9159    0.0276    0.7577 O   0  0  0  0  0  0  0  0  0  0  0  0
   -4.9991   -0.7852   -1.9861 O   0  0  0  0  0  0  0  0  0  0  0  0
   -5.7623    0.5335    1.3285 O   0  0  0  0  0  0  0  0  0  0  0  0
   -3.8976    1.7336   -2.3452 O   0  0  0  0  0  0  0  0  0  0  0  0
   -3.5980   -2.1310    0.0637 O   0  0  0  0  0  0  0  0  0  0  0  0
   -2.6920   -1.9213    2.6789 O   0  0  0  0  0  0  0  0  0  0  0  0
    0.7111    1.8781   -0.4264 O   0  0  0  0  0  0  0  0  0  0  0  0
   -0.0680   -0.2966   -0.4909 O   0  0  0  0  0  0  0  0  0  0  0  0
    1.9930    1.1837   -0.4097 O   0  0  0  0  0  0  0  0  0  0  0  0
    4.2367   -2.1503    1.4331 O   0  0  0  0  0  0  0  0  0  0  0  0
    3.7265    0.6170    2.3352 O   0  0  0  0  0  0  0  0  0  0  0  0
    5.5202   -1.4322   -0.9732 O   0  0  0  0  0  0  0  0  0  0  0  0
    5.2061    2.4040    0.5588 O   0  0  0  0  0  0  0  0  0  0  0  0
    3.9535   -2.9416   -2.7330 O   0  0  0  0  0  0  0  0  0  0  0  0
    2.6835    3.2138    0.4450 O   0  0  0  0  0  0  0  0  0  0  0  0
   -5.2105    0.2137   -0.9900 C   0  0  1  0  0  0  0  0  0  0  0  0
   -5.2950   -0.4394    0.3951 C   0  0  1  0  0  0  0  0  0  0  0  0
   -4.0557    1.2200   -1.0280 C   0  0  1  0  0  0  0  0  0  0  0  0
   -3.9253   -0.9870    0.8584 C   0  0  2  0  0  0  0  0  0  0  0  0
   -2.7514    0.5700   -0.5562 C   0  0  1  0  0  0  0  0  0  0  0  0
   -1.6108    1.5819   -0.4886 C   0  0  0  0  0  0  0  0  0  0  0  0
   -3.9676   -1.4233    2.3261 C   0  0  0  0  0  0  0  0  0  0  0  0
   -0.2569    0.9119   -0.4696 C   0  0  0  0  0  0  0  0  0  0  0  0
    3.7428   -1.0838    0.6153 C   0  0  1  0  0  0  0  0  0  0  0  0
    4.3614    0.2345    1.1147 C   0  0  1  0  0  0  0  0  0  0  0  0
    4.0908   -1.4335   -0.8477 C   0  0  2  0  0  0  0  0  0  0  0  0
    4.2802    1.4093    0.1246 C   0  0  1  0  0  0  0  0  0  0  0  0
    3.5868   -2.7759   -1.3693 C   0  0  0  0  0  0  0  0  0  0  0  0
    2.9133    2.0683    0.0786 C   0  0  0  0  0  0  0  0  0  0  0  0
   -6.1442    0.7297   -1.2426 H   0  0  0  0  0  0  0  0  0  0  0  0
   -6.0197   -1.2628    0.3705 H   0  0  0  0  0  0  0  0  0  0  0  0
   -4.2969    2.0617   -0.3663 H   0  0  0  0  0  0  0  0  0  0  0  0
   -2.4707   -0.2330   -1.2502 H   0  0  0  0  0  0  0  0  0  0  0  0
   -1.6967    2.1923    0.4180 H   0  0  0  0  0  0  0  0  0  0  0  0
   -1.6222    2.2350   -1.3681 H   0  0  0  0  0  0  0  0  0  0  0  0
   -4.7007   -2.2218    2.4793 H   0  0  0  0  0  0  0  0  0  0  0  0
   -4.1891   -0.5839    2.9925 H   0  0  0  0  0  0  0  0  0  0  0  0
   -5.7483   -1.4035   -1.9435 H   0  0  0  0  0  0  0  0  0  0  0  0
   -6.6395    0.8285    1.0301 H   0  0  0  0  0  0  0  0  0  0  0  0
   -4.7442    2.1337   -2.6073 H   0  0  0  0  0  0  0  0  0  0  0  0
   -2.9899   -2.6906    0.5754 H   0  0  0  0  0  0  0  0  0  0  0  0
   -2.7384   -2.1986    3.6098 H   0  0  0  0  0  0  0  0  0  0  0  0
    2.6546   -1.0746    0.7420 H   0  0  0  0  0  0  0  0  0  0  0  0
    5.4132    0.0549    1.3733 H   0  0  0  0  0  0  0  0  0  0  0  0
    3.7120   -0.6604   -1.5236 H   0  0  0  0  0  0  0  0  0  0  0  0
    4.5929    1.1456   -0.8875 H   0  0  0  0  0  0  0  0  0  0  0  0
    2.4968   -2.8346   -1.2905 H   0  0  0  0  0  0  0  0  0  0  0  0
    4.0326   -3.6043   -0.8093 H   0  0  0  0  0  0  0  0  0  0  0  0
    4.0080   -1.9387    2.3544 H   0  0  0  0  0  0  0  0  0  0  0  0
    4.1637    1.4264    2.6511 H   0  0  0  0  0  0  0  0  0  0  0  0
    5.7309   -1.6140   -1.9051 H   0  0  0  0  0  0  0  0  0  0  0  0
    5.2368    3.0951   -0.1250 H   0  0  0  0  0  0  0  0  0  0  0  0
    3.6092   -3.8051   -3.0183 H   0  0  0  0  0  0  0  0  0  0  0  0
  1 19  1  0  0  0  0
  1 20  1  0  0  0  0
  2 16  1  0  0  0  0
  2 38  1  0  0  0  0
  3 17  1  0  0  0  0
  3 39  1  0  0  0  0
  4 18  1  0  0  0  0
  4 40  1  0  0  0  0
  5 19  1  0  0  0  0
  5 41  1  0  0  0  0
  6 22  1  0  0  0  0
  6 42  1  0  0  0  0
  7  9  1  0  0  0  0
  7 23  1  0  0  0  0
  8 23  2  0  0  0  0
  9 29  1  0  0  0  0
 10 24  1  0  0  0  0
 10 49  1  0  0  0  0
 11 25  1  0  0  0  0
 11 50  1  0  0  0  0
 12 26  1  0  0  0  0
 12 51  1  0  0  0  0
 13 27  1  0  0  0  0
 13 52  1  0  0  0  0
 14 28  1  0  0  0  0
 14 53  1  0  0  0  0
 15 29  2  0  0  0  0
 16 17  1  0  0  0  0
 16 18  1  0  0  0  0
 16 30  1  0  0  0  0
 17 19  1  0  0  0  0
 17 31  1  0  0  0  0
 18 20  1  0  0  0  0
 18 32  1  0  0  0  0
 19 22  1  0  0  0  0
 20 21  1  0  0  0  0
 20 33  1  0  0  0  0
 21 23  1  0  0  0  0
 21 34  1  0  0  0  0
 21 35  1  0  0  0  0
 22 36  1  0  0  0  0
 22 37  1  0  0  0  0
 24 25  1  0  0  0  0
 24 26  1  0  0  0  0
 24 43  1  0  0  0  0
 25 27  1  0  0  0  0
 25 44  1  0  0  0  0
 26 28  1  0  0  0  0
 26 45  1  0  0  0  0
 27 29  1  0  0  0  0
 27 46  1  0  0  0  0
 28 47  1  0  0  0  0
 28 48  1  0  0  0  0
M  END
> <PUBCHEM_COMPOUND_CID>
129714520

> <PUBCHEM_CONFORMER_RMSD>
1.6

> <PUBCHEM_CONFORMER_DIVERSEORDER>
1
5
35
34
21
20
38
30
69
51
50
40
36
53
71
59
47
61
72
17
15
2
33
60
9
27
73
52
74
7
25
39
41
67
54
4
63
62
56
75
43
19
32
23
49
76
58
22
11
3
18
64
14
26
70
68
65
46
55
10
13
45
77
48
44
31
24
66
29
12
57
8
42
16
37
6
28

> <PUBCHEM_MMFF94_PARTIAL_CHARGES>
39
1 -0.56
10 -0.68
11 -0.68
12 -0.68
13 -0.68
14 -0.68
15 -0.57
16 0.28
17 0.28
18 0.28
19 0.56
2 -0.68
20 0.28
21 0.06
22 0.28
23 0.66
24 0.28
25 0.28
26 0.28
27 0.34
28 0.28
29 0.66
3 -0.68
38 0.4
39 0.4
4 -0.68
40 0.4
41 0.4
42 0.4
49 0.4
5 -0.68
50 0.4
51 0.4
52 0.4
53 0.4
6 -0.68
7 -0.15
8 -0.57
9 -0.15

> <PUBCHEM_EFFECTIVE_ROTOR_COUNT>
12.2

> <PUBCHEM_PHARMACOPHORE_FEATURES>
24
1 1 acceptor
1 10 acceptor
1 10 donor
1 11 acceptor
1 11 donor
1 12 acceptor
1 12 donor
1 13 acceptor
1 13 donor
1 14 acceptor
1 14 donor
1 15 acceptor
1 2 acceptor
1 2 donor
1 3 acceptor
1 3 donor
1 4 acceptor
1 4 donor
1 5 acceptor
1 5 donor
1 6 acceptor
1 6 donor
1 8 acceptor
6 1 16 17 18 19 20 rings

> <PUBCHEM_HEAVY_ATOM_COUNT>
29

> <PUBCHEM_ATOM_DEF_STEREO_COUNT>
4

> <PUBCHEM_ATOM_UDEF_STEREO_COUNT>
5

> <PUBCHEM_BOND_DEF_STEREO_COUNT>
0

> <PUBCHEM_BOND_UDEF_STEREO_COUNT>
0

> <PUBCHEM_ISOTOPIC_ATOM_COUNT>
0

> <PUBCHEM_COMPONENT_COUNT>
1

> <PUBCHEM_CACTVS_TAUTO_COUNT>
1

> <PUBCHEM_CONFORMER_ID>
07BB495800000001

> <PUBCHEM_MMFF94_ENERGY>
61.3904

> <PUBCHEM_FEATURE_SELFOVERLAP>
121.932

> <PUBCHEM_SHAPE_FINGERPRINT>
10981352 41 18191603045484483483
11135609 99 17386267819983531978
11370993 144 18411145740442333969
11595378 159 15267061428177875747
11796584 16 17967808362302587969
12596602 18 16486967440264756474
13533116 47 17775283846034650607
13583140 156 18264764535704744733
13617811 41 16515402972124166079
14415361 192 14279889987588750107
14910302 57 17313093125318870295
15361156 5 18261683648367808501
15799311 1 18059586809659668366
17349148 13 17418374709537300725
17844677 252 17458343052513822605
1813 80 17022904566334891117
1979834 28 18202273715673808104
20645477 70 18413099559598560460
21623969 137 18411697712358859904
21781051 124 16371021732636581539
23559900 14 18040157335427395588
239999 70 18333732434071565432
4015057 19 18341037601953175569
508706 21 17894628162866667511
5326457 24 17846206800361379327
6823239 73 18260269638202881554
9709674 26 18040996301728244937

> <PUBCHEM_SHAPE_MULTIPOLES>
508.77
15.08
3.02
2.14
2.34
0.19
0.12
3.05
0.06
-3.87
-0.51
0.66
1.37
3.65

> <PUBCHEM_SHAPE_SELFOVERLAP>
1028.113

> <PUBCHEM_SHAPE_VOLUME>
292

> <PUBCHEM_COORDINATE_TYPE>
2
5
10