129723616
  -OEChem-05072106003D

 33 32  0     1  0  0  0  0  0999 V2000
   -5.0356    0.9614   -0.1711 P   0  0  0  0  0  0  0  0  0  0  0  0
    4.7434    1.2042    0.0684 P   0  0  0  0  0  0  0  0  0  0  0  0
    0.1647   -2.0821    1.7014 O   0  0  0  0  0  0  0  0  0  0  0  0
   -0.2788   -2.4031   -1.0879 O   0  0  0  0  0  0  0  0  0  0  0  0
   -4.0416   -0.1237    0.4985 O   0  0  0  0  0  0  0  0  0  0  0  0
    3.7906   -0.0470   -0.3246 O   0  0  0  0  0  0  0  0  0  0  0  0
    2.3037   -2.1737   -0.9658 O   0  0  0  0  0  0  0  0  0  0  0  0
   -4.4574    2.3656    0.3847 O   0  0  0  0  0  0  0  0  0  0  0  0
   -4.6019    0.9711   -1.7290 O   0  0  0  0  0  0  0  0  0  0  0  0
   -6.4958    0.7305    0.0870 O   0  0  0  0  0  0  0  0  0  0  0  0
    4.1407    2.4145   -0.8186 O   0  0  0  0  0  0  0  0  0  0  0  0
    4.2816    1.5793    1.5721 O   0  0  0  0  0  0  0  0  0  0  0  0
    6.2134    0.9594   -0.1091 O   0  0  0  0  0  0  0  0  0  0  0  0
   -0.3962   -1.0403    0.8965 C   0  0  2  0  0  0  0  0  0  0  0  0
   -1.9204   -1.1012    1.0168 C   0  0  0  0  0  0  0  0  0  0  0  0
    0.1586   -1.1670   -0.5271 C   0  0  1  0  0  0  0  0  0  0  0  0
   -2.6421    0.0289    0.2978 C   0  0  0  0  0  0  0  0  0  0  0  0
    1.6810   -1.1749   -0.6029 C   0  0  0  0  0  0  0  0  0  0  0  0
    2.3920    0.0982   -0.1873 C   0  0  0  0  0  0  0  0  0  0  0  0
   -0.0623   -0.0935    1.3371 H   0  0  0  0  0  0  0  0  0  0  0  0
   -2.2919   -2.0692    0.6556 H   0  0  0  0  0  0  0  0  0  0  0  0
   -2.2004   -1.0911    2.0790 H   0  0  0  0  0  0  0  0  0  0  0  0
   -0.2068   -0.3582   -1.1680 H   0  0  0  0  0  0  0  0  0  0  0  0
   -2.3183    0.9958    0.6952 H   0  0  0  0  0  0  0  0  0  0  0  0
   -2.4351   -0.0024   -0.7752 H   0  0  0  0  0  0  0  0  0  0  0  0
    2.0397    0.9117   -0.8276 H   0  0  0  0  0  0  0  0  0  0  0  0
    2.1545    0.3098    0.8577 H   0  0  0  0  0  0  0  0  0  0  0  0
    1.1194   -1.9180    1.7806 H   0  0  0  0  0  0  0  0  0  0  0  0
   -0.0372   -2.3985   -2.0300 H   0  0  0  0  0  0  0  0  0  0  0  0
   -4.9506    3.1914    0.1921 H   0  0  0  0  0  0  0  0  0  0  0  0
   -5.1152    1.5181   -2.3610 H   0  0  0  0  0  0  0  0  0  0  0  0
    4.6095    3.2760   -0.8268 H   0  0  0  0  0  0  0  0  0  0  0  0
    4.7731    2.2737    2.0602 H   0  0  0  0  0  0  0  0  0  0  0  0
  1  5  1  0  0  0  0
  1  8  1  0  0  0  0
  1  9  1  0  0  0  0
  1 10  2  0  0  0  0
  2  6  1  0  0  0  0
  2 11  1  0  0  0  0
  2 12  1  0  0  0  0
  2 13  2  0  0  0  0
  3 14  1  0  0  0  0
  3 28  1  0  0  0  0
  4 16  1  0  0  0  0
  4 29  1  0  0  0  0
  5 17  1  0  0  0  0
  6 19  1  0  0  0  0
  7 18  2  0  0  0  0
  8 30  1  0  0  0  0
  9 31  1  0  0  0  0
 11 32  1  0  0  0  0
 12 33  1  0  0  0  0
 14 15  1  0  0  0  0
 14 16  1  0  0  0  0
 14 20  1  0  0  0  0
 15 17  1  0  0  0  0
 15 21  1  0  0  0  0
 15 22  1  0  0  0  0
 16 18  1  0  0  0  0
 16 23  1  0  0  0  0
 17 24  1  0  0  0  0
 17 25  1  0  0  0  0
 18 19  1  0  0  0  0
 19 26  1  0  0  0  0
 19 27  1  0  0  0  0
M  END
> <PUBCHEM_COMPOUND_CID>
129723616

> <PUBCHEM_CONFORMER_RMSD>
0.8

> <PUBCHEM_CONFORMER_DIVERSEORDER>
1
90
79
2
5
104
6
78
69
83
45
40
49
20
63
105
92
113
44
22
123
97
98
120
50
46
87
9
39
7
127
68
52
128
109
58
86
121
77
65
122
59
36
31
27
101
119
47
76
18
23
29
124
4
114
57
103
32
88
94
71
11
84
74
72
100
107
99
106
26
117
30
48
116
64
37
51
70
28
118
96
126
110
80
42
89
53
19
41
67
55
111
21
24
12
73
102
60
16
25
14
34
56
95
81
3
35
129
112
115
33
62
54
10
108
8
17
15
82
43
93
125
85
75
13
61
38
91
66

> <PUBCHEM_MMFF94_PARTIAL_CHARGES>
24
1 1.51
10 -0.7
11 -0.77
12 -0.77
13 -0.7
14 0.28
16 0.34
17 0.28
18 0.45
19 0.34
2 1.51
28 0.4
29 0.4
3 -0.68
30 0.5
31 0.5
32 0.5
33 0.5
4 -0.68
5 -0.55
6 -0.55
7 -0.57
8 -0.77
9 -0.77

> <PUBCHEM_EFFECTIVE_ROTOR_COUNT>
9

> <PUBCHEM_PHARMACOPHORE_FEATURES>
13
1 10 acceptor
1 11 acceptor
1 12 acceptor
1 13 acceptor
1 3 acceptor
1 3 donor
1 4 acceptor
1 4 donor
1 7 acceptor
1 8 acceptor
1 9 acceptor
4 1 8 9 10 anion
4 2 11 12 13 anion

> <PUBCHEM_HEAVY_ATOM_COUNT>
19

> <PUBCHEM_ATOM_DEF_STEREO_COUNT>
2

> <PUBCHEM_ATOM_UDEF_STEREO_COUNT>
0

> <PUBCHEM_BOND_DEF_STEREO_COUNT>
0

> <PUBCHEM_BOND_UDEF_STEREO_COUNT>
0

> <PUBCHEM_ISOTOPIC_ATOM_COUNT>
0

> <PUBCHEM_COMPONENT_COUNT>
1

> <PUBCHEM_CACTVS_TAUTO_COUNT>
7

> <PUBCHEM_CONFORMER_ID>
07BB6CE000000001

> <PUBCHEM_MMFF94_ENERGY>
-42.2102

> <PUBCHEM_FEATURE_SELFOVERLAP>
66.069

> <PUBCHEM_SHAPE_FINGERPRINT>
11128504 68 15339119065202361008
122479 349 18335425724479575106
12596602 18 15719402775219360144
12633257 1 17095526239907653860
13103583 49 12252185130537180741
13685833 64 9439401333065300797
13740256 8 8718827583055856822
13955234 65 18045224843303444219
14123255 352 18259984885691545349
14178342 30 16878518937064279923
14251732 17 18260550030531335080
14251751 18 10303817579133941120
14251764 30 12319445624152678805
14251764 38 18336271166990519213
15003188 100 18131069376544428088
15061688 2 18408889546265266074
17834072 32 18337393863146813996
17959699 21 18341897333972437129
20374829 77 10952056627972952657
20645477 56 18261119577713045027
20871999 31 14117524229135977995
212916 134 17603305955422125803
21452121 103 18261955154736214634
23016692 55 11671784875231588905
23402655 69 17989489597794098975
23559900 14 18114760226249443718
2767999 5 18411696599413970400
2838139 119 18343860026425900496
2916195 48 18260550009362570585
33382 64 9799699194459030812
4259306 186 11240003334435801577
4325135 7 18340768234884710119
43658 37 18201717366446882090
465052 167 11241973667968024304
5104073 3 17822298929537991443
56616090 284 13758078510533328478
59682541 52 17274558537759729052
8217 86 16342277264164855359

> <PUBCHEM_SHAPE_MULTIPOLES>
334.15
13.78
2.42
1.24
4.12
0.07
0.11
-11.97
-0.75
-0.87
-0.15
0.07
0.25
0.77

> <PUBCHEM_SHAPE_SELFOVERLAP>
618.949

> <PUBCHEM_SHAPE_VOLUME>
209.9

> <PUBCHEM_COORDINATE_TYPE>
2
5
10