129717715
  -OEChem-05072106003D

 34 35  0     1  0  0  0  0  0999 V2000
   -0.3022   -0.7286    0.5728 O   0  0  0  0  0  0  0  0  0  0  0  0
    0.6630    0.7679   -1.0615 O   0  0  0  0  0  0  0  0  0  0  0  0
    1.4500    0.7337    1.2514 O   0  0  0  0  0  0  0  0  0  0  0  0
   -1.9155    1.7865   -1.3381 O   0  0  0  0  0  0  0  0  0  0  0  0
   -2.9643   -0.0056    1.6453 O   0  0  0  0  0  0  0  0  0  0  0  0
   -1.4136   -1.0001   -1.5081 O   0  0  0  0  0  0  0  0  0  0  0  0
   -0.1175    2.9445    0.4762 O   0  0  0  0  0  0  0  0  0  0  0  0
   -1.0496   -3.2969    0.0033 O   0  0  0  0  0  0  0  0  0  0  0  0
    1.5206   -0.0329   -2.9770 O   0  0  0  0  0  0  0  0  0  0  0  0
    3.1231   -0.2562    2.4009 O   0  0  0  0  0  0  0  0  0  0  0  0
   -2.5863    0.1273    0.2756 C   0  0  1  0  0  0  0  0  0  0  0  0
   -2.0233    1.5334    0.0597 C   0  0  1  0  0  0  0  0  0  0  0  0
   -1.5548   -0.9633   -0.0854 C   0  0  2  0  0  0  0  0  0  0  0  0
   -0.6624    1.6552    0.7492 C   0  0  1  0  0  0  0  0  0  0  0  0
    0.3299    0.5435    0.3372 C   0  0  0  0  0  0  0  0  0  0  0  0
   -2.0296   -2.3473    0.3724 C   0  0  0  0  0  0  0  0  0  0  0  0
    1.6148    0.1131   -1.7601 C   0  0  0  0  0  0  0  0  0  0  0  0
    2.4262   -0.1937    1.3930 C   0  0  0  0  0  0  0  0  0  0  0  0
    2.8652   -0.2755   -1.0239 C   0  0  0  0  0  0  0  0  0  0  0  0
    2.6264   -1.1051    0.2170 C   0  0  0  0  0  0  0  0  0  0  0  0
   -2.6986    2.2935    0.4703 H   0  0  0  0  0  0  0  0  0  0  0  0
   -3.4853   -0.0116   -0.3377 H   0  0  0  0  0  0  0  0  0  0  0  0
   -0.8137    1.5994    1.8356 H   0  0  0  0  0  0  0  0  0  0  0  0
   -2.9723   -2.6219   -0.1121 H   0  0  0  0  0  0  0  0  0  0  0  0
   -2.1432   -2.3983    1.4597 H   0  0  0  0  0  0  0  0  0  0  0  0
   -2.8072    1.7158   -1.7194 H   0  0  0  0  0  0  0  0  0  0  0  0
   -3.6428    0.6663    1.8289 H   0  0  0  0  0  0  0  0  0  0  0  0
   -0.7603    3.6067    0.7826 H   0  0  0  0  0  0  0  0  0  0  0  0
   -1.1091   -1.8882   -1.7596 H   0  0  0  0  0  0  0  0  0  0  0  0
    3.4634   -0.8754   -1.7216 H   0  0  0  0  0  0  0  0  0  0  0  0
    3.4371    0.6364   -0.8166 H   0  0  0  0  0  0  0  0  0  0  0  0
    3.5303   -1.6921    0.4236 H   0  0  0  0  0  0  0  0  0  0  0  0
    1.8060   -1.8194    0.1208 H   0  0  0  0  0  0  0  0  0  0  0  0
   -1.3680   -4.1680    0.2954 H   0  0  0  0  0  0  0  0  0  0  0  0
  1 13  1  0  0  0  0
  1 15  1  0  0  0  0
  2 15  1  0  0  0  0
  2 17  1  0  0  0  0
  3 15  1  0  0  0  0
  3 18  1  0  0  0  0
  4 12  1  0  0  0  0
  4 26  1  0  0  0  0
  5 11  1  0  0  0  0
  5 27  1  0  0  0  0
  6 13  1  0  0  0  0
  6 29  1  0  0  0  0
  7 14  1  0  0  0  0
  7 28  1  0  0  0  0
  8 16  1  0  0  0  0
  8 34  1  0  0  0  0
  9 17  2  0  0  0  0
 10 18  2  0  0  0  0
 11 12  1  0  0  0  0
 11 13  1  0  0  0  0
 11 22  1  0  0  0  0
 12 14  1  0  0  0  0
 12 21  1  0  0  0  0
 13 16  1  0  0  0  0
 14 15  1  0  0  0  0
 14 23  1  0  0  0  0
 16 24  1  0  0  0  0
 16 25  1  0  0  0  0
 17 19  1  0  0  0  0
 18 20  1  0  0  0  0
 19 20  1  0  0  0  0
 19 30  1  0  0  0  0
 19 31  1  0  0  0  0
 20 32  1  0  0  0  0
 20 33  1  0  0  0  0
M  END
> <PUBCHEM_COMPOUND_CID>
129717715

> <PUBCHEM_CONFORMER_RMSD>
0.6

> <PUBCHEM_CONFORMER_DIVERSEORDER>
1
5
4
3
2

> <PUBCHEM_MMFF94_PARTIAL_CHARGES>
25
1 -0.56
10 -0.57
11 0.28
12 0.28
13 0.56
14 0.28
15 0.84
16 0.28
17 0.66
18 0.66
19 0.06
2 -0.43
20 0.06
26 0.4
27 0.4
28 0.4
29 0.4
3 -0.43
34 0.4
4 -0.68
5 -0.68
6 -0.68
7 -0.68
8 -0.68
9 -0.57

> <PUBCHEM_EFFECTIVE_ROTOR_COUNT>
2.8

> <PUBCHEM_PHARMACOPHORE_FEATURES>
15
1 1 acceptor
1 10 acceptor
1 4 acceptor
1 4 donor
1 5 acceptor
1 5 donor
1 6 acceptor
1 6 donor
1 7 acceptor
1 7 donor
1 8 acceptor
1 8 donor
1 9 acceptor
6 1 11 12 13 14 15 rings
7 2 3 15 17 18 19 20 rings

> <PUBCHEM_HEAVY_ATOM_COUNT>
20

> <PUBCHEM_ATOM_DEF_STEREO_COUNT>
4

> <PUBCHEM_ATOM_UDEF_STEREO_COUNT>
0

> <PUBCHEM_BOND_DEF_STEREO_COUNT>
0

> <PUBCHEM_BOND_UDEF_STEREO_COUNT>
0

> <PUBCHEM_ISOTOPIC_ATOM_COUNT>
0

> <PUBCHEM_COMPONENT_COUNT>
1

> <PUBCHEM_CACTVS_TAUTO_COUNT>
1

> <PUBCHEM_CONFORMER_ID>
07BB55D300000001

> <PUBCHEM_MMFF94_ENERGY>
60.3255

> <PUBCHEM_FEATURE_SELFOVERLAP>
76.197

> <PUBCHEM_SHAPE_FINGERPRINT>
11578080 2 17389345438164637964
11582403 64 16475649978365598896
12326174 3 17331683955805415083
12423570 1 17026255727309974076
12716301 132 18126578824748011505
13083527 12 17408778356786575363
13294875 104 16545801968418192520
13538477 17 18187374245773415859
13898156 1 18040727943444493052
14115302 16 17968082171015863127
14817 1 18341323418677202828
15207287 21 17630867336085928412
15375462 175 18194712317736791915
15852999 172 17610608727181203525
15881359 60 16955040333540792990
16752209 62 18334581200786190471
16945 1 18409722941692566449
19765921 60 17317353896359981788
20645476 183 17968108473179059043
21731516 1 18188776191923945291
232386 152 18335697299340423346
23419403 2 17053253385606815529
23559900 14 18199468775876093766
23598291 2 17096369436529840906
2748010 2 17917433163181017742
576247 118 17629517260339913622
5845 1 17317285674856605416
598444 67 18057617464075398955
6992083 37 17532074021633634454
77492 1 17676775288088167936
81228 2 18272650143031013025
90525 40 17968387736210825487

> <PUBCHEM_SHAPE_MULTIPOLES>
352.9
4.25
2.39
2
1.09
0.64
0.63
0.71
-1.01
-1.74
-0.17
1.58
-0.12
0.08

> <PUBCHEM_SHAPE_SELFOVERLAP>
742.445

> <PUBCHEM_SHAPE_VOLUME>
192.2

> <PUBCHEM_COORDINATE_TYPE>
2
5
10