129704068
  -OEChem-05072106003D

 26 25  0     1  0  0  0  0  0999 V2000
    0.4351    0.7553    1.3822 O   0  0  0  0  0  0  0  0  0  0  0  0
    2.3886   -0.8984   -1.2195 O   0  0  0  0  0  0  0  0  0  0  0  0
   -0.1992    1.4428   -1.3544 O   0  0  0  0  0  0  0  0  0  0  0  0
    4.4896    0.0637    0.3504 O   0  0  0  0  0  0  0  0  0  0  0  0
   -2.3266   -2.0341    0.6655 O   0  0  0  0  0  0  0  0  0  0  0  0
   -3.6736    0.8369    0.6379 O   0  0  0  0  0  0  0  0  0  0  0  0
   -2.3668    1.0944    0.2229 N   0  0  0  0  0  0  0  0  0  0  0  0
    0.6759   -0.1208    0.2744 C   0  0  2  0  0  0  0  0  0  0  0  0
    2.1311    0.0623   -0.1874 C   0  0  1  0  0  0  0  0  0  0  0  0
   -0.3781    0.1402   -0.8101 C   0  0  1  0  0  0  0  0  0  0  0  0
    3.1896   -0.1202    0.8975 C   0  0  0  0  0  0  0  0  0  0  0  0
   -1.8323    0.0570   -0.3480 C   0  0  0  0  0  0  0  0  0  0  0  0
   -2.5334   -1.2791   -0.5113 C   0  0  0  0  0  0  0  0  0  0  0  0
    0.5312   -1.1464    0.6374 H   0  0  0  0  0  0  0  0  0  0  0  0
    2.2645    1.0558   -0.6319 H   0  0  0  0  0  0  0  0  0  0  0  0
   -0.2330   -0.5704   -1.6315 H   0  0  0  0  0  0  0  0  0  0  0  0
    3.0596    0.6037    1.7070 H   0  0  0  0  0  0  0  0  0  0  0  0
    3.1450   -1.1336    1.3099 H   0  0  0  0  0  0  0  0  0  0  0  0
    0.8978    0.3885    2.1544 H   0  0  0  0  0  0  0  0  0  0  0  0
   -3.6049   -1.1507   -0.6843 H   0  0  0  0  0  0  0  0  0  0  0  0
   -2.1090   -1.8191   -1.3626 H   0  0  0  0  0  0  0  0  0  0  0  0
   -0.7667    1.5130   -2.1412 H   0  0  0  0  0  0  0  0  0  0  0  0
    3.3029   -0.7625   -1.5219 H   0  0  0  0  0  0  0  0  0  0  0  0
    5.1253   -0.0685    1.0743 H   0  0  0  0  0  0  0  0  0  0  0  0
   -2.7274   -2.9080    0.5200 H   0  0  0  0  0  0  0  0  0  0  0  0
   -3.9246    1.6884    1.0340 H   0  0  0  0  0  0  0  0  0  0  0  0
  1  8  1  0  0  0  0
  1 19  1  0  0  0  0
  2  9  1  0  0  0  0
  2 23  1  0  0  0  0
  3 10  1  0  0  0  0
  3 22  1  0  0  0  0
  4 11  1  0  0  0  0
  4 24  1  0  0  0  0
  5 13  1  0  0  0  0
  5 25  1  0  0  0  0
  6  7  1  0  0  0  0
  6 26  1  0  0  0  0
  7 12  2  3  0  0  0
  8  9  1  0  0  0  0
  8 10  1  0  0  0  0
  8 14  1  0  0  0  0
  9 11  1  0  0  0  0
  9 15  1  0  0  0  0
 10 12  1  0  0  0  0
 10 16  1  0  0  0  0
 11 17  1  0  0  0  0
 11 18  1  0  0  0  0
 12 13  1  0  0  0  0
 13 20  1  0  0  0  0
 13 21  1  0  0  0  0
M  END
> <PUBCHEM_COMPOUND_CID>
129704068

> <PUBCHEM_CONFORMER_RMSD>
0.8

> <PUBCHEM_CONFORMER_DIVERSEORDER>
4
84
19
31
87
90
33
21
53
78
22
47
10
81
48
24
44
56
58
65
66
34
13
16
7
80
5
82
75
62
86
69
1
68
11
67
54
26
35
45
74
32
72
30
9
71
15
63
14
85
73
88
37
8
25
64
3
12
76
6
36
17
77
57
79
2
41
40
60
29
49
43
89
83
23
50
28
51
39
61
70
59
42
27
38
52
20
55
46
18

> <PUBCHEM_MMFF94_PARTIAL_CHARGES>
19
1 -0.68
10 0.34
11 0.28
12 0.33
13 0.34
19 0.4
2 -0.68
22 0.4
23 0.4
24 0.4
25 0.4
26 0.4
3 -0.68
4 -0.68
5 -0.68
6 -0.34
7 -0.51
8 0.28
9 0.28

> <PUBCHEM_EFFECTIVE_ROTOR_COUNT>
5

> <PUBCHEM_PHARMACOPHORE_FEATURES>
12
1 1 acceptor
1 1 donor
1 2 acceptor
1 2 donor
1 3 acceptor
1 3 donor
1 4 acceptor
1 4 donor
1 5 acceptor
1 5 donor
1 6 anion
1 7 acceptor

> <PUBCHEM_HEAVY_ATOM_COUNT>
13

> <PUBCHEM_ATOM_DEF_STEREO_COUNT>
3

> <PUBCHEM_ATOM_UDEF_STEREO_COUNT>
0

> <PUBCHEM_BOND_DEF_STEREO_COUNT>
0

> <PUBCHEM_BOND_UDEF_STEREO_COUNT>
1

> <PUBCHEM_ISOTOPIC_ATOM_COUNT>
0

> <PUBCHEM_COMPONENT_COUNT>
1

> <PUBCHEM_CACTVS_TAUTO_COUNT>
12

> <PUBCHEM_CONFORMER_ID>
07BB208400000004

> <PUBCHEM_MMFF94_ENERGY>
26.5913

> <PUBCHEM_FEATURE_SELFOVERLAP>
60.92

> <PUBCHEM_SHAPE_FINGERPRINT>
12251169 10 18408323276333532989
124424 183 17703504428480761121
12932764 1 17676479536750889628
13214271 11 17632566172003657232
13296908 3 17561087999039629206
14445660 50 18409168809502299488
16945 1 18335141947104949429
20279233 1 17775850111782049830
20645464 45 18272930509879787311
20645477 70 16630249082826216972
20711985 327 18113897191014528156
21061003 4 17632292423593854720
23402539 116 17168134638185079310
3248919 1 18413668023809695028
75552 356 18408882966491185651

> <PUBCHEM_SHAPE_MULTIPOLES>
227.34
6.13
1.33
1.14
3.34
0.35
0.09
0.48
-1.28
-1.23
-0.02
0.19
-0.11
0.15

> <PUBCHEM_SHAPE_SELFOVERLAP>
431.837

> <PUBCHEM_SHAPE_VOLUME>
139.6

> <PUBCHEM_COORDINATE_TYPE>
2
5
10