129703171
  -OEChem-05072106003D

 32 33  0     1  0  0  0  0  0999 V2000
   -0.3019   -0.6438    0.6600 O   0  0  0  0  0  0  0  0  0  0  0  0
    0.7070    0.6937   -1.0990 O   0  0  0  0  0  0  0  0  0  0  0  0
    1.4384    0.9111    1.1546 O   0  0  0  0  0  0  0  0  0  0  0  0
   -2.9798    0.1543    1.6248 O   0  0  0  0  0  0  0  0  0  0  0  0
   -1.9046    1.6340   -1.5309 O   0  0  0  0  0  0  0  0  0  0  0  0
   -1.3874   -1.1518   -1.3909 O   0  0  0  0  0  0  0  0  0  0  0  0
   -0.1447    2.9940    0.1657 O   0  0  0  0  0  0  0  0  0  0  0  0
   -1.0063   -3.2700    0.3613 O   0  0  0  0  0  0  0  0  0  0  0  0
    1.8379   -0.0922   -2.8803 O   0  0  0  0  0  0  0  0  0  0  0  0
    3.3813    0.3232    2.1289 O   0  0  0  0  0  0  0  0  0  0  0  0
   -2.5939    0.1398    0.2510 C   0  0  1  0  0  0  0  0  0  0  0  0
   -2.0495    1.5225   -0.1182 C   0  0  1  0  0  0  0  0  0  0  0  0
   -1.5439   -0.9674    0.0187 C   0  0  2  0  0  0  0  0  0  0  0  0
   -0.6986    1.7426    0.5680 C   0  0  1  0  0  0  0  0  0  0  0  0
    0.3081    0.6054    0.2901 C   0  0  0  0  0  0  0  0  0  0  0  0
   -2.0037   -2.3013    0.6174 C   0  0  0  0  0  0  0  0  0  0  0  0
    1.5926   -0.1448   -1.6784 C   0  0  0  0  0  0  0  0  0  0  0  0
    2.5154    0.1083    1.2855 C   0  0  0  0  0  0  0  0  0  0  0  0
    2.2195   -1.1826   -0.8497 C   0  0  0  0  0  0  0  0  0  0  0  0
    2.6143   -1.0750    0.4214 C   0  0  0  0  0  0  0  0  0  0  0  0
   -3.4857   -0.0787   -0.3497 H   0  0  0  0  0  0  0  0  0  0  0  0
   -2.7407    2.3135    0.1961 H   0  0  0  0  0  0  0  0  0  0  0  0
   -0.8615    1.8032    1.6523 H   0  0  0  0  0  0  0  0  0  0  0  0
   -2.9370   -2.6406    0.1562 H   0  0  0  0  0  0  0  0  0  0  0  0
   -2.1286   -2.2375    1.7028 H   0  0  0  0  0  0  0  0  0  0  0  0
   -3.6680    0.8333    1.7290 H   0  0  0  0  0  0  0  0  0  0  0  0
   -2.7810    1.4914   -1.9273 H   0  0  0  0  0  0  0  0  0  0  0  0
   -1.0702   -2.0576   -1.5446 H   0  0  0  0  0  0  0  0  0  0  0  0
   -0.7982    3.6837    0.3724 H   0  0  0  0  0  0  0  0  0  0  0  0
   -1.3155   -4.1096    0.7419 H   0  0  0  0  0  0  0  0  0  0  0  0
    2.4485   -2.1057   -1.3775 H   0  0  0  0  0  0  0  0  0  0  0  0
    3.1443   -1.9159    0.8629 H   0  0  0  0  0  0  0  0  0  0  0  0
  1 13  1  0  0  0  0
  1 15  1  0  0  0  0
  2 15  1  0  0  0  0
  2 17  1  0  0  0  0
  3 15  1  0  0  0  0
  3 18  1  0  0  0  0
  4 11  1  0  0  0  0
  4 26  1  0  0  0  0
  5 12  1  0  0  0  0
  5 27  1  0  0  0  0
  6 13  1  0  0  0  0
  6 28  1  0  0  0  0
  7 14  1  0  0  0  0
  7 29  1  0  0  0  0
  8 16  1  0  0  0  0
  8 30  1  0  0  0  0
  9 17  2  0  0  0  0
 10 18  2  0  0  0  0
 11 12  1  0  0  0  0
 11 13  1  0  0  0  0
 11 21  1  0  0  0  0
 12 14  1  0  0  0  0
 12 22  1  0  0  0  0
 13 16  1  0  0  0  0
 14 15  1  0  0  0  0
 14 23  1  0  0  0  0
 16 24  1  0  0  0  0
 16 25  1  0  0  0  0
 17 19  1  0  0  0  0
 18 20  1  0  0  0  0
 19 20  2  0  0  0  0
 19 31  1  0  0  0  0
 20 32  1  0  0  0  0
M  END
> <PUBCHEM_COMPOUND_CID>
129703171

> <PUBCHEM_CONFORMER_RMSD>
0.6

> <PUBCHEM_CONFORMER_DIVERSEORDER>
1
2
3

> <PUBCHEM_MMFF94_PARTIAL_CHARGES>
27
1 -0.56
10 -0.57
11 0.28
12 0.28
13 0.56
14 0.28
15 0.84
16 0.28
17 0.71
18 0.71
19 -0.14
2 -0.43
20 -0.14
26 0.4
27 0.4
28 0.4
29 0.4
3 -0.43
30 0.4
31 0.15
32 0.15
4 -0.68
5 -0.68
6 -0.68
7 -0.68
8 -0.68
9 -0.57

> <PUBCHEM_EFFECTIVE_ROTOR_COUNT>
2.4

> <PUBCHEM_PHARMACOPHORE_FEATURES>
15
1 1 acceptor
1 10 acceptor
1 4 acceptor
1 4 donor
1 5 acceptor
1 5 donor
1 6 acceptor
1 6 donor
1 7 acceptor
1 7 donor
1 8 acceptor
1 8 donor
1 9 acceptor
6 1 11 12 13 14 15 rings
7 2 3 15 17 18 19 20 rings

> <PUBCHEM_HEAVY_ATOM_COUNT>
20

> <PUBCHEM_ATOM_DEF_STEREO_COUNT>
4

> <PUBCHEM_ATOM_UDEF_STEREO_COUNT>
0

> <PUBCHEM_BOND_DEF_STEREO_COUNT>
0

> <PUBCHEM_BOND_UDEF_STEREO_COUNT>
0

> <PUBCHEM_ISOTOPIC_ATOM_COUNT>
0

> <PUBCHEM_COMPONENT_COUNT>
1

> <PUBCHEM_CACTVS_TAUTO_COUNT>
1

> <PUBCHEM_CONFORMER_ID>
07BB1D0300000001

> <PUBCHEM_MMFF94_ENERGY>
72.1515

> <PUBCHEM_FEATURE_SELFOVERLAP>
76.198

> <PUBCHEM_SHAPE_FINGERPRINT>
12382932 28 18340760537422198538
12423570 1 17773029976310375265
12633257 1 18200864098458760794
12716301 132 18124328115819089593
13083527 12 17550648346439892723
13538477 17 18114196249371024895
13898156 1 17822305551939737068
14115302 16 17749940172145594023
14817 1 18411131420488209988
15207287 21 17844217710442645672
15375462 175 18120402915305826143
15852999 172 18192413191567806567
16752209 62 18188217498578311831
16945 1 18408888399508556217
20361792 2 16298373631386143242
20645476 183 17749967543782091907
21421861 104 17472432418235572211
21731516 1 18041850647874711699
232386 152 18261672691853676970
23419403 2 17268024303264243065
23559900 14 18269274557173327494
2748010 2 18131078150956625807
576247 118 17414755091588825366
598444 67 18126860295535184499
81228 2 18341900683983429561

> <PUBCHEM_SHAPE_MULTIPOLES>
352.9
4.19
2.47
1.88
1.02
0.62
0.79
0.4
-1.24
-1.48
-0.26
1.34
-0.16
0.6

> <PUBCHEM_SHAPE_SELFOVERLAP>
749.21

> <PUBCHEM_SHAPE_VOLUME>
189.9

> <PUBCHEM_COORDINATE_TYPE>
2
5
10