129717602
  -OEChem-05072106003D

 45 45  0     1  0  0  0  0  0999 V2000
   -0.9411   -0.6484    0.7114 O   0  0  0  0  0  0  0  0  0  0  0  0
   -2.1973    0.7089   -2.4638 O   0  0  0  0  0  0  0  0  0  0  0  0
   -2.1578   -2.0584   -2.2987 O   0  0  0  0  0  0  0  0  0  0  0  0
   -3.7773   -1.4238    0.9081 O   0  0  0  0  0  0  0  0  0  0  0  0
   -0.5590   -2.8380   -0.1049 O   0  0  0  0  0  0  0  0  0  0  0  0
   -1.1598    2.1295    0.5196 O   0  0  0  0  0  0  0  0  0  0  0  0
   -0.1293   -2.4576    2.6106 O   0  0  0  0  0  0  0  0  0  0  0  0
    1.9550    0.7003   -0.5114 O   0  0  0  0  0  0  0  0  0  0  0  0
    1.3369    1.7787    1.4357 O   0  0  0  0  0  0  0  0  0  0  0  0
    3.2397    0.6641    0.1777 O   0  0  0  0  0  0  0  0  0  0  0  0
   -0.4915    4.1053   -0.4739 O   0  0  0  0  0  0  0  0  0  0  0  0
    3.6192   -1.0205   -1.3585 O   0  0  0  0  0  0  0  0  0  0  0  0
   -2.2699    0.0826   -1.1884 C   0  0  2  0  0  0  0  0  0  0  0  0
   -0.8754    0.0064   -0.5592 C   0  0  1  0  0  0  0  0  0  0  0  0
   -2.8842   -1.3146   -1.3220 C   0  0  2  0  0  0  0  0  0  0  0  0
   -2.8391   -2.0413    0.0279 C   0  0  1  0  0  0  0  0  0  0  0  0
   -1.4284   -1.9969    0.6592 C   0  0  2  0  0  0  0  0  0  0  0  0
   -0.2881    1.3951   -0.3229 C   0  0  2  0  0  0  0  0  0  0  0  0
   -1.4467   -2.5155    2.1005 C   0  0  0  0  0  0  0  0  0  0  0  0
    1.0742    1.3216    0.3307 C   0  0  0  0  0  0  0  0  0  0  0  0
   -1.1650    3.4870    0.3394 C   0  0  0  0  0  0  0  0  0  0  0  0
   -2.1269    4.1282    1.2930 C   0  0  0  0  0  0  0  0  0  0  0  0
    3.9795   -0.3172   -0.4244 C   0  0  0  0  0  0  0  0  0  0  0  0
    5.3261   -0.3958    0.2558 C   0  0  0  0  0  0  0  0  0  0  0  0
    6.2060   -1.4799   -0.3417 C   0  0  0  0  0  0  0  0  0  0  0  0
   -2.9320    0.6868   -0.5562 H   0  0  0  0  0  0  0  0  0  0  0  0
   -0.1934   -0.5504   -1.2148 H   0  0  0  0  0  0  0  0  0  0  0  0
   -3.9136   -1.2207   -1.6873 H   0  0  0  0  0  0  0  0  0  0  0  0
   -3.1377   -3.0883   -0.1073 H   0  0  0  0  0  0  0  0  0  0  0  0
   -0.1669    1.9031   -1.2884 H   0  0  0  0  0  0  0  0  0  0  0  0
   -1.7836   -3.5564    2.1409 H   0  0  0  0  0  0  0  0  0  0  0  0
   -2.0773   -1.8965    2.7462 H   0  0  0  0  0  0  0  0  0  0  0  0
   -3.0973    0.7313   -2.8311 H   0  0  0  0  0  0  0  0  0  0  0  0
   -2.5729   -2.9350   -2.3667 H   0  0  0  0  0  0  0  0  0  0  0  0
   -4.6569   -1.5026    0.5011 H   0  0  0  0  0  0  0  0  0  0  0  0
    0.1677   -3.1260    0.4728 H   0  0  0  0  0  0  0  0  0  0  0  0
   -0.1582   -2.7952    3.5221 H   0  0  0  0  0  0  0  0  0  0  0  0
   -3.1357    3.7491    1.1114 H   0  0  0  0  0  0  0  0  0  0  0  0
   -2.1275    5.2105    1.1354 H   0  0  0  0  0  0  0  0  0  0  0  0
   -1.8183    3.9254    2.3216 H   0  0  0  0  0  0  0  0  0  0  0  0
    5.1659   -0.6053    1.3188 H   0  0  0  0  0  0  0  0  0  0  0  0
    5.8240    0.5740    0.1520 H   0  0  0  0  0  0  0  0  0  0  0  0
    5.7347   -2.4641   -0.2495 H   0  0  0  0  0  0  0  0  0  0  0  0
    7.1718   -1.5132    0.1718 H   0  0  0  0  0  0  0  0  0  0  0  0
    6.3899   -1.2952   -1.4054 H   0  0  0  0  0  0  0  0  0  0  0  0
  1 14  1  0  0  0  0
  1 17  1  0  0  0  0
  2 13  1  0  0  0  0
  2 33  1  0  0  0  0
  3 15  1  0  0  0  0
  3 34  1  0  0  0  0
  4 16  1  0  0  0  0
  4 35  1  0  0  0  0
  5 17  1  0  0  0  0
  5 36  1  0  0  0  0
  6 18  1  0  0  0  0
  6 21  1  0  0  0  0
  7 19  1  0  0  0  0
  7 37  1  0  0  0  0
  8 10  1  0  0  0  0
  8 20  1  0  0  0  0
  9 20  2  0  0  0  0
 10 23  1  0  0  0  0
 11 21  2  0  0  0  0
 12 23  2  0  0  0  0
 13 14  1  0  0  0  0
 13 15  1  0  0  0  0
 13 26  1  0  0  0  0
 14 18  1  0  0  0  0
 14 27  1  0  0  0  0
 15 16  1  0  0  0  0
 15 28  1  0  0  0  0
 16 17  1  0  0  0  0
 16 29  1  0  0  0  0
 17 19  1  0  0  0  0
 18 20  1  0  0  0  0
 18 30  1  0  0  0  0
 19 31  1  0  0  0  0
 19 32  1  0  0  0  0
 21 22  1  0  0  0  0
 22 38  1  0  0  0  0
 22 39  1  0  0  0  0
 22 40  1  0  0  0  0
 23 24  1  0  0  0  0
 24 25  1  0  0  0  0
 24 41  1  0  0  0  0
 24 42  1  0  0  0  0
 25 43  1  0  0  0  0
 25 44  1  0  0  0  0
 25 45  1  0  0  0  0
M  END
> <PUBCHEM_COMPOUND_CID>
129717602

> <PUBCHEM_CONFORMER_RMSD>
1

> <PUBCHEM_CONFORMER_DIVERSEORDER>
1
41
28
15
11
75
55
30
34
13
50
76
25
32
51
57
3
67
64
14
62
63
56
74
53
68
2
40
79
27
29
38
24
10
43
48
17
77
6
39
20
12
72
37
70
8
59
16
61
54
69
49
5
26
47
33
19
73
22
4
65
46
80
71
36
60
31
7
21
35
44
18
81
66
52
78
9
45
58
42
23

> <PUBCHEM_MMFF94_PARTIAL_CHARGES>
29
1 -0.56
10 -0.15
11 -0.57
12 -0.57
13 0.28
14 0.28
15 0.28
16 0.28
17 0.56
18 0.34
19 0.28
2 -0.68
20 0.66
21 0.66
22 0.06
23 0.66
24 0.06
3 -0.68
33 0.4
34 0.4
35 0.4
36 0.4
37 0.4
4 -0.68
5 -0.68
6 -0.43
7 -0.68
8 -0.15
9 -0.57

> <PUBCHEM_EFFECTIVE_ROTOR_COUNT>
10.2

> <PUBCHEM_PHARMACOPHORE_FEATURES>
16
1 1 acceptor
1 11 acceptor
1 12 acceptor
1 2 acceptor
1 2 donor
1 25 hydrophobe
1 3 acceptor
1 3 donor
1 4 acceptor
1 4 donor
1 5 acceptor
1 5 donor
1 7 acceptor
1 7 donor
1 9 acceptor
6 1 13 14 15 16 17 rings

> <PUBCHEM_HEAVY_ATOM_COUNT>
25

> <PUBCHEM_ATOM_DEF_STEREO_COUNT>
4

> <PUBCHEM_ATOM_UDEF_STEREO_COUNT>
2

> <PUBCHEM_BOND_DEF_STEREO_COUNT>
0

> <PUBCHEM_BOND_UDEF_STEREO_COUNT>
0

> <PUBCHEM_ISOTOPIC_ATOM_COUNT>
0

> <PUBCHEM_COMPONENT_COUNT>
1

> <PUBCHEM_CACTVS_TAUTO_COUNT>
1

> <PUBCHEM_CONFORMER_ID>
07BB556200000001

> <PUBCHEM_MMFF94_ENERGY>
46.339

> <PUBCHEM_FEATURE_SELFOVERLAP>
81.275

> <PUBCHEM_SHAPE_FINGERPRINT>
107951 10 17758992249460922198
12363563 72 18341051929874177198
12553582 1 18197789997133468300
12788726 201 18340197497316791688
13911987 19 17544200836520894820
14251740 79 18187644670284655154
14844126 61 18200585905000697598
14863182 85 15377428601467278179
14866123 147 18267590113026064291
15463212 79 18044653105931038448
20101258 96 18342749541673933880
20832881 197 18336545044776205491
23175994 123 18336828718327577527
23419403 2 14330546936179847621
23526113 38 18047174534525885481
23557571 272 18189042257154356592
23558518 356 18190472553940712794
23559900 14 18335410314622369596
3027735 51 18270404880263618714
484985 159 17967827024109783914
59755656 520 18046071462939965692
81228 2 18411695499918563424

> <PUBCHEM_SHAPE_MULTIPOLES>
444.06
7.81
4.54
1.86
18.11
4.41
0.07
-3.87
-1.53
-4.47
1.8
-1.45
-1.11
-0.05

> <PUBCHEM_SHAPE_SELFOVERLAP>
900.501

> <PUBCHEM_SHAPE_VOLUME>
253.8

> <PUBCHEM_COORDINATE_TYPE>
2
5
10