129717960
  -OEChem-05072106003D

 47 47  0     1  0  0  0  0  0999 V2000
   -2.1585    0.6045   -0.5491 O   0  0  0  0  0  0  0  0  0  0  0  0
    0.1535    0.3513   -0.3759 O   0  0  0  0  0  0  0  0  0  0  0  0
   -3.7823   -1.6633   -1.5525 O   0  0  0  0  0  0  0  0  0  0  0  0
   -2.7460   -1.9429    1.9220 O   0  0  0  0  0  0  0  0  0  0  0  0
   -3.6826    0.6851    1.2614 O   0  0  0  0  0  0  0  0  0  0  0  0
   -0.2225   -2.1793    0.8682 O   0  0  0  0  0  0  0  0  0  0  0  0
   -4.1969    2.4285   -0.8374 O   0  0  0  0  0  0  0  0  0  0  0  0
    3.1235    2.1844    1.4542 O   0  0  0  0  0  0  0  0  0  0  0  0
    2.0945    3.2233   -0.8791 O   0  0  0  0  0  0  0  0  0  0  0  0
    4.1289   -0.3288    1.6605 O   0  0  0  0  0  0  0  0  0  0  0  0
    3.1054   -2.4666    0.2397 O   0  0  0  0  0  0  0  0  0  0  0  0
    0.0559    2.3515    0.7683 O   0  0  0  0  0  0  0  0  0  0  0  0
    4.3524   -2.1038   -2.2349 O   0  0  0  0  0  0  0  0  0  0  0  0
   -3.7126   -1.2503   -0.1885 C   0  0  1  0  0  0  0  0  0  0  0  0
   -2.6018   -2.0476    0.5056 C   0  0  1  0  0  0  0  0  0  0  0  0
   -3.4779    0.2750   -0.0937 C   0  0  2  0  0  0  0  0  0  0  0  0
   -1.2208   -1.5494    0.0709 C   0  0  1  0  0  0  0  0  0  0  0  0
   -1.1068   -0.0286    0.1789 C   0  0  2  0  0  0  0  0  0  0  0  0
   -4.4598    1.0465   -0.9804 C   0  0  0  0  0  0  0  0  0  0  0  0
    3.1271    1.3699    0.2702 C   0  0  2  0  0  0  0  0  0  0  0  0
    1.9743    1.8298   -0.6320 C   0  0  1  0  0  0  0  0  0  0  0  0
    3.0636   -0.1040    0.7272 C   0  0  1  0  0  0  0  0  0  0  0  0
    0.6199    1.5763    0.0071 C   0  0  0  0  0  0  0  0  0  0  0  0
    3.1589   -1.1778   -0.3694 C   0  0  1  0  0  0  0  0  0  0  0  0
    4.4108   -1.0837   -1.2414 C   0  0  0  0  0  0  0  0  0  0  0  0
   -4.6773   -1.4867    0.2783 H   0  0  0  0  0  0  0  0  0  0  0  0
   -2.6793   -3.1145    0.2639 H   0  0  0  0  0  0  0  0  0  0  0  0
   -1.0405   -1.8431   -0.9711 H   0  0  0  0  0  0  0  0  0  0  0  0
   -1.1389    0.2686    1.2357 H   0  0  0  0  0  0  0  0  0  0  0  0
   -5.4950    0.8621   -0.6755 H   0  0  0  0  0  0  0  0  0  0  0  0
   -4.3344    0.7941   -2.0379 H   0  0  0  0  0  0  0  0  0  0  0  0
    4.0880    1.5831   -0.2100 H   0  0  0  0  0  0  0  0  0  0  0  0
   -3.9837   -2.6145   -1.5619 H   0  0  0  0  0  0  0  0  0  0  0  0
   -3.6216   -2.2963    2.1544 H   0  0  0  0  0  0  0  0  0  0  0  0
    2.0060    1.3247   -1.6037 H   0  0  0  0  0  0  0  0  0  0  0  0
   -3.9263    1.6261    1.2588 H   0  0  0  0  0  0  0  0  0  0  0  0
   -0.3209   -3.1403    0.7565 H   0  0  0  0  0  0  0  0  0  0  0  0
    2.1536   -0.2712    1.3156 H   0  0  0  0  0  0  0  0  0  0  0  0
    2.2784   -1.1131   -1.0179 H   0  0  0  0  0  0  0  0  0  0  0  0
   -4.8318    2.9023   -1.4014 H   0  0  0  0  0  0  0  0  0  0  0  0
    4.4779   -0.1180   -1.7493 H   0  0  0  0  0  0  0  0  0  0  0  0
    5.3157   -1.2514   -0.6490 H   0  0  0  0  0  0  0  0  0  0  0  0
    2.3192    1.9790    1.9603 H   0  0  0  0  0  0  0  0  0  0  0  0
    2.9394    3.3677   -1.3383 H   0  0  0  0  0  0  0  0  0  0  0  0
    4.0639   -1.2514    1.9615 H   0  0  0  0  0  0  0  0  0  0  0  0
    3.1580   -3.1284   -0.4710 H   0  0  0  0  0  0  0  0  0  0  0  0
    5.1594   -2.0245   -2.7715 H   0  0  0  0  0  0  0  0  0  0  0  0
  1 16  1  0  0  0  0
  1 18  1  0  0  0  0
  2 18  1  0  0  0  0
  2 23  1  0  0  0  0
  3 14  1  0  0  0  0
  3 33  1  0  0  0  0
  4 15  1  0  0  0  0
  4 34  1  0  0  0  0
  5 16  1  0  0  0  0
  5 36  1  0  0  0  0
  6 17  1  0  0  0  0
  6 37  1  0  0  0  0
  7 19  1  0  0  0  0
  7 40  1  0  0  0  0
  8 20  1  0  0  0  0
  8 43  1  0  0  0  0
  9 21  1  0  0  0  0
  9 44  1  0  0  0  0
 10 22  1  0  0  0  0
 10 45  1  0  0  0  0
 11 24  1  0  0  0  0
 11 46  1  0  0  0  0
 12 23  2  0  0  0  0
 13 25  1  0  0  0  0
 13 47  1  0  0  0  0
 14 15  1  0  0  0  0
 14 16  1  0  0  0  0
 14 26  1  0  0  0  0
 15 17  1  0  0  0  0
 15 27  1  0  0  0  0
 16 19  1  0  0  0  0
 17 18  1  0  0  0  0
 17 28  1  0  0  0  0
 18 29  1  0  0  0  0
 19 30  1  0  0  0  0
 19 31  1  0  0  0  0
 20 21  1  0  0  0  0
 20 22  1  0  0  0  0
 20 32  1  0  0  0  0
 21 23  1  0  0  0  0
 21 35  1  0  0  0  0
 22 24  1  0  0  0  0
 22 38  1  0  0  0  0
 24 25  1  0  0  0  0
 24 39  1  0  0  0  0
 25 41  1  0  0  0  0
 25 42  1  0  0  0  0
M  END
> <PUBCHEM_COMPOUND_CID>
129717960

> <PUBCHEM_CONFORMER_RMSD>
1.4

> <PUBCHEM_CONFORMER_DIVERSEORDER>
1
51
14
52
76
19
7
66
5
58
28
29
36
57
63
15
86
16
44
68
47
69
77
71
26
49
20
38
31
56
6
80
10
30
4
83
39
59
65
84
8
33
11
13
32
75
25
21
50
64
67
40
79
70
12
74
22
85
78
9
37
53
18
17
35
61
73
42
82
46
27
48
72
41
24
60
45
43
3
54
55
81
23
62
34
2

> <PUBCHEM_MMFF94_PARTIAL_CHARGES>
35
1 -0.56
10 -0.68
11 -0.68
12 -0.57
13 -0.68
14 0.28
15 0.28
16 0.56
17 0.28
18 0.56
19 0.28
2 -0.43
20 0.28
21 0.34
22 0.28
23 0.66
24 0.28
25 0.28
3 -0.68
33 0.4
34 0.4
36 0.4
37 0.4
4 -0.68
40 0.4
43 0.4
44 0.4
45 0.4
46 0.4
47 0.4
5 -0.68
6 -0.68
7 -0.68
8 -0.68
9 -0.68

> <PUBCHEM_EFFECTIVE_ROTOR_COUNT>
9.2

> <PUBCHEM_PHARMACOPHORE_FEATURES>
23
1 1 acceptor
1 10 acceptor
1 10 donor
1 11 acceptor
1 11 donor
1 12 acceptor
1 13 acceptor
1 13 donor
1 3 acceptor
1 3 donor
1 4 acceptor
1 4 donor
1 5 acceptor
1 5 donor
1 6 acceptor
1 6 donor
1 7 acceptor
1 7 donor
1 8 acceptor
1 8 donor
1 9 acceptor
1 9 donor
6 1 14 15 16 17 18 rings

> <PUBCHEM_HEAVY_ATOM_COUNT>
25

> <PUBCHEM_ATOM_DEF_STEREO_COUNT>
4

> <PUBCHEM_ATOM_UDEF_STEREO_COUNT>
5

> <PUBCHEM_BOND_DEF_STEREO_COUNT>
0

> <PUBCHEM_BOND_UDEF_STEREO_COUNT>
0

> <PUBCHEM_ISOTOPIC_ATOM_COUNT>
0

> <PUBCHEM_COMPONENT_COUNT>
1

> <PUBCHEM_CACTVS_TAUTO_COUNT>
1

> <PUBCHEM_CONFORMER_ID>
07BB56C800000001

> <PUBCHEM_MMFF94_ENERGY>
62.6364

> <PUBCHEM_FEATURE_SELFOVERLAP>
116.866

> <PUBCHEM_SHAPE_FINGERPRINT>
10616163 171 17902232543981729138
1100329 8 16752679466092264977
116883 192 18340206289389399860
12553582 1 18335710381995371202
12596599 1 18272090478490514594
12788726 201 18124319307252570080
13140716 1 18408322202586233369
13224815 77 18261394511079945931
13533116 47 18131351951211724835
13544592 145 18340205189740199844
13583140 156 16486393503716322683
14022347 108 18262801753209695416
14251757 17 18408039606659975043
14251757 5 18116444651966040220
14866123 147 17622172256441688162
15210252 30 17895490137354684836
15420108 30 16546095533548916017
15536298 74 18341610451341672250
16752209 62 18191305970637387612
17492 89 18200592621929148655
17818456 19 17845947212379577729
18186145 218 18409451383921942657
20645477 70 18264767855745742886
21521239 73 18200571658952594431
23558518 356 17896598573549980939
23559900 14 18412546513855593332
3004659 81 17823422591973275814
350125 39 18261682498049769755
495365 180 17917132979611641376
5104073 3 18336823190662665289
59755656 215 18261105237265422383
633830 44 18334571356599828975
6442390 28 9439109984122605684
6823239 73 18410300237533276970
9709674 26 18337389456172511215

> <PUBCHEM_SHAPE_MULTIPOLES>
438.19
9.59
3.14
1.45
0.36
0.76
0.04
-1.45
1.98
-0.87
0.22
-0.66
-0.46
1.54

> <PUBCHEM_SHAPE_SELFOVERLAP>
885.926

> <PUBCHEM_SHAPE_VOLUME>
251

> <PUBCHEM_COORDINATE_TYPE>
2
5
10