129859456
  -OEChem-05072106003D

 39 39  0     1  0  0  0  0  0999 V2000
   -1.7503    0.8119    0.7410 O   0  0  0  0  0  0  0  0  0  0  0  0
   -0.0358   -1.4703    1.1598 O   0  0  0  0  0  0  0  0  0  0  0  0
   -1.3495   -3.0882   -0.6245 O   0  0  0  0  0  0  0  0  0  0  0  0
   -3.9794   -1.8669   -0.4440 O   0  0  0  0  0  0  0  0  0  0  0  0
   -3.9662    0.4131    1.3176 O   0  0  0  0  0  0  0  0  0  0  0  0
   -3.6027    2.2811   -0.7189 O   0  0  0  0  0  0  0  0  0  0  0  0
    2.7917    0.5564    0.4326 O   0  0  0  0  0  0  0  0  0  0  0  0
    1.8970    1.4593   -1.4966 O   0  0  0  0  0  0  0  0  0  0  0  0
    3.9493    0.4037   -0.4407 O   0  0  0  0  0  0  0  0  0  0  0  0
    4.5311   -1.1487    1.1736 O   0  0  0  0  0  0  0  0  0  0  0  0
   -0.6003    0.5444   -0.0701 C   0  0  2  0  0  0  0  0  0  0  0  0
   -0.3366   -0.9631   -0.1424 C   0  0  2  0  0  0  0  0  0  0  0  0
   -1.5781   -1.6814   -0.6713 C   0  0  2  0  0  0  0  0  0  0  0  0
   -2.8097   -1.3148    0.1599 C   0  0  1  0  0  0  0  0  0  0  0  0
   -2.9741    0.2126    0.2981 C   0  0  2  0  0  0  0  0  0  0  0  0
    0.5649    1.3195    0.5362 C   0  0  2  0  0  0  0  0  0  0  0  0
   -3.4854    0.8966   -0.9768 C   0  0  0  0  0  0  0  0  0  0  0  0
    0.2186    2.7994    0.6757 C   0  0  0  0  0  0  0  0  0  0  0  0
    1.8045    1.1326   -0.3204 C   0  0  0  0  0  0  0  0  0  0  0  0
    4.7479   -0.5452    0.1316 C   0  0  0  0  0  0  0  0  0  0  0  0
    5.9631   -0.7518   -0.7205 C   0  0  0  0  0  0  0  0  0  0  0  0
   -0.7824    0.9248   -1.0826 H   0  0  0  0  0  0  0  0  0  0  0  0
    0.5177   -1.1994   -0.7868 H   0  0  0  0  0  0  0  0  0  0  0  0
   -1.7513   -1.4247   -1.7232 H   0  0  0  0  0  0  0  0  0  0  0  0
   -2.7329   -1.7720    1.1548 H   0  0  0  0  0  0  0  0  0  0  0  0
    0.7682    0.9593    1.5527 H   0  0  0  0  0  0  0  0  0  0  0  0
   -4.4801    0.5290   -1.2499 H   0  0  0  0  0  0  0  0  0  0  0  0
   -2.8141    0.7615   -1.8283 H   0  0  0  0  0  0  0  0  0  0  0  0
   -0.0867    3.2296   -0.2847 H   0  0  0  0  0  0  0  0  0  0  0  0
    1.0902    3.3660    1.0223 H   0  0  0  0  0  0  0  0  0  0  0  0
   -0.5891    2.9616    1.3966 H   0  0  0  0  0  0  0  0  0  0  0  0
    0.8785   -1.2173    1.3714 H   0  0  0  0  0  0  0  0  0  0  0  0
   -0.5663   -3.2765   -1.1692 H   0  0  0  0  0  0  0  0  0  0  0  0
   -3.8338   -2.8238   -0.5385 H   0  0  0  0  0  0  0  0  0  0  0  0
   -4.3411    1.3023    1.2003 H   0  0  0  0  0  0  0  0  0  0  0  0
   -3.9338    2.6990   -1.5320 H   0  0  0  0  0  0  0  0  0  0  0  0
    5.6655   -1.1013   -1.7124 H   0  0  0  0  0  0  0  0  0  0  0  0
    6.5279    0.1810   -0.7938 H   0  0  0  0  0  0  0  0  0  0  0  0
    6.6030   -1.5109   -0.2615 H   0  0  0  0  0  0  0  0  0  0  0  0
  1 11  1  0  0  0  0
  1 15  1  0  0  0  0
  2 12  1  0  0  0  0
  2 32  1  0  0  0  0
  3 13  1  0  0  0  0
  3 33  1  0  0  0  0
  4 14  1  0  0  0  0
  4 34  1  0  0  0  0
  5 15  1  0  0  0  0
  5 35  1  0  0  0  0
  6 17  1  0  0  0  0
  6 36  1  0  0  0  0
  7  9  1  0  0  0  0
  7 19  1  0  0  0  0
  8 19  2  0  0  0  0
  9 20  1  0  0  0  0
 10 20  2  0  0  0  0
 11 12  1  0  0  0  0
 11 16  1  0  0  0  0
 11 22  1  0  0  0  0
 12 13  1  0  0  0  0
 12 23  1  0  0  0  0
 13 14  1  0  0  0  0
 13 24  1  0  0  0  0
 14 15  1  0  0  0  0
 14 25  1  0  0  0  0
 15 17  1  0  0  0  0
 16 18  1  0  0  0  0
 16 19  1  0  0  0  0
 16 26  1  0  0  0  0
 17 27  1  0  0  0  0
 17 28  1  0  0  0  0
 18 29  1  0  0  0  0
 18 30  1  0  0  0  0
 18 31  1  0  0  0  0
 20 21  1  0  0  0  0
 21 37  1  0  0  0  0
 21 38  1  0  0  0  0
 21 39  1  0  0  0  0
M  END
> <PUBCHEM_COMPOUND_CID>
129859456

> <PUBCHEM_CONFORMER_RMSD>
1

> <PUBCHEM_CONFORMER_DIVERSEORDER>
1
66
86
27
36
142
120
61
100
98
34
63
124
67
11
8
10
29
104
129
75
106
70
94
19
77
121
44
126
46
138
95
128
59
116
87
21
26
73
23
35
31
112
135
17
143
65
37
139
45
43
33
39
30
16
109
76
89
68
80
5
127
20
92
52
60
28
133
96
47
3
85
62
97
134
146
105
140
41
101
131
84
40
49
4
72
114
137
55
103
107
122
12
69
123
144
79
57
32
132
136
54
24
108
50
14
82
71
74
22
9
102
51
6
38
15
58
111
78
88
93
125
145
18
110
118
119
117
130
99
2
25
56
13
83
42
115
141
7
90
53
81
91
64
113
48

> <PUBCHEM_MMFF94_PARTIAL_CHARGES>
25
1 -0.56
10 -0.57
11 0.28
12 0.28
13 0.28
14 0.28
15 0.56
16 0.06
17 0.28
19 0.66
2 -0.68
20 0.66
21 0.06
3 -0.68
32 0.4
33 0.4
34 0.4
35 0.4
36 0.4
4 -0.68
5 -0.68
6 -0.68
7 -0.15
8 -0.57
9 -0.15

> <PUBCHEM_EFFECTIVE_ROTOR_COUNT>
7.2

> <PUBCHEM_PHARMACOPHORE_FEATURES>
15
1 1 acceptor
1 10 acceptor
1 18 hydrophobe
1 2 acceptor
1 2 donor
1 3 acceptor
1 3 donor
1 4 acceptor
1 4 donor
1 5 acceptor
1 5 donor
1 6 acceptor
1 6 donor
1 8 acceptor
6 1 11 12 13 14 15 rings

> <PUBCHEM_HEAVY_ATOM_COUNT>
21

> <PUBCHEM_ATOM_DEF_STEREO_COUNT>
4

> <PUBCHEM_ATOM_UDEF_STEREO_COUNT>
2

> <PUBCHEM_BOND_DEF_STEREO_COUNT>
0

> <PUBCHEM_BOND_UDEF_STEREO_COUNT>
0

> <PUBCHEM_ISOTOPIC_ATOM_COUNT>
0

> <PUBCHEM_COMPONENT_COUNT>
1

> <PUBCHEM_CACTVS_TAUTO_COUNT>
1

> <PUBCHEM_CONFORMER_ID>
07BD7F8000000001

> <PUBCHEM_MMFF94_ENERGY>
47.5923

> <PUBCHEM_FEATURE_SELFOVERLAP>
76.208

> <PUBCHEM_SHAPE_FINGERPRINT>
10062212 137 18411416236860163115
10366900 7 17346596340640921658
12346177 29 18059565931823778598
12403259 226 18267859669948692909
12553582 1 18410288104229371978
12555020 224 18342451517628608166
12715332 25 18342181085049569403
12788726 201 18337676292065148680
13675066 3 18334013917063250008
14251731 8 18409167688837491300
14251751 93 18260261945494428263
14251752 14 17822851971249857854
15042514 8 18266744773927891451
15099037 51 18410854334894450036
15196674 1 18411981390579803922
16752209 62 18338220652861957779
16945 1 18127983116414446115
17349148 13 17775571965510410636
17804303 29 18271809046763845256
17834072 8 18335698321595263996
1813 80 18040442075233060894
20600515 1 17988657293473251232
21267235 1 18339651121515824642
23366157 5 18047748484292199568
23402539 116 17917710171370920652
23559900 14 18272649069970086696
3004659 81 18333450941956897982
3084891 72 18271240513147340669
3286 77 18270398437817533869
335352 9 18413390943201862565
350125 39 18410011044563437435
5104073 3 18271529809206555834
559249 180 18335415730191124946
58051976 100 18187362142682150493
59755656 215 18411416172931402895
633830 44 16732983141479065844
7226269 152 18060140877684596496
9709674 26 18193556898867818722

> <PUBCHEM_SHAPE_MULTIPOLES>
373.48
9.54
2.57
1.07
12.21
0.14
-0.01
2.39
0.78
-1.64
0.18
0
-0.11
-0.23

> <PUBCHEM_SHAPE_SELFOVERLAP>
755.644

> <PUBCHEM_SHAPE_VOLUME>
215.4

> <PUBCHEM_COORDINATE_TYPE>
2
5
10