129856190
  -OEChem-05072106003D

 48 49  0     1  0  0  0  0  0999 V2000
   -0.8411   -1.1742    1.3973 O   0  0  0  0  0  0  0  0  0  0  0  0
   -4.4282   -0.4957    1.3139 O   0  0  0  0  0  0  0  0  0  0  0  0
   -2.1850    2.9656    1.3565 O   0  0  0  0  0  0  0  0  0  0  0  0
   -3.7140   -2.6009   -0.2856 O   0  0  0  0  0  0  0  0  0  0  0  0
   -0.9034    3.5778   -0.8668 O   0  0  0  0  0  0  0  0  0  0  0  0
   -3.3095    0.8723   -0.7590 O   0  0  0  0  0  0  0  0  0  0  0  0
   -1.6511   -3.9691   -1.6359 O   0  0  0  0  0  0  0  0  0  0  0  0
    3.1115    1.1553    1.6557 N   0  0  0  0  0  0  0  0  0  0  0  0
   -0.7326    1.3775   -2.7520 N   0  0  2  0  0  0  0  0  0  0  0  0
   -0.1232    1.3585   -1.4226 C   0  0  1  0  0  0  0  0  0  0  0  0
    1.3715    1.6899   -1.5478 C   0  0  0  0  0  0  0  0  0  0  0  0
   -2.2311   -1.4770    1.2050 C   0  0  1  0  0  0  0  0  0  0  0  0
   -3.0432   -0.1904    1.3905 C   0  0  1  0  0  0  0  0  0  0  0  0
    2.1892    1.2350   -0.3617 C   0  0  0  0  0  0  0  0  0  0  0  0
   -1.6366    1.8757    0.6460 C   0  0  2  0  0  0  0  0  0  0  0  0
   -2.3555   -2.1574   -0.1737 C   0  0  1  0  0  0  0  0  0  0  0  0
   -0.8847    2.3795   -0.5775 C   0  0  0  0  0  0  0  0  0  0  0  0
   -2.7204    0.8562    0.3232 C   0  0  0  0  0  0  0  0  0  0  0  0
    3.0061    0.0719   -0.2917 C   0  0  0  0  0  0  0  0  0  0  0  0
    3.5731    0.0455    0.9843 C   0  0  0  0  0  0  0  0  0  0  0  0
    2.2746    1.8802    0.8505 C   0  0  0  0  0  0  0  0  0  0  0  0
   -1.4455   -3.3712   -0.3636 C   0  0  0  0  0  0  0  0  0  0  0  0
    3.3185   -0.9641   -1.1942 C   0  0  0  0  0  0  0  0  0  0  0  0
    4.4404   -0.9692    1.4045 C   0  0  0  0  0  0  0  0  0  0  0  0
    4.1845   -1.9856   -0.7876 C   0  0  0  0  0  0  0  0  0  0  0  0
    4.7357   -1.9861    0.4922 C   0  0  0  0  0  0  0  0  0  0  0  0
   -0.2525    0.3592   -0.9935 H   0  0  0  0  0  0  0  0  0  0  0  0
    1.5207    2.7695   -1.6827 H   0  0  0  0  0  0  0  0  0  0  0  0
    1.7893    1.2150   -2.4455 H   0  0  0  0  0  0  0  0  0  0  0  0
   -2.5328   -2.1966    1.9770 H   0  0  0  0  0  0  0  0  0  0  0  0
   -2.8553    0.2538    2.3735 H   0  0  0  0  0  0  0  0  0  0  0  0
   -0.8802    1.4104    1.2862 H   0  0  0  0  0  0  0  0  0  0  0  0
   -2.1650   -1.4528   -0.9896 H   0  0  0  0  0  0  0  0  0  0  0  0
    1.8161    2.7894    1.2139 H   0  0  0  0  0  0  0  0  0  0  0  0
   -0.3914   -3.0869   -0.2884 H   0  0  0  0  0  0  0  0  0  0  0  0
   -1.6636   -4.1316    0.3940 H   0  0  0  0  0  0  0  0  0  0  0  0
    3.3556    1.3987    2.6057 H   0  0  0  0  0  0  0  0  0  0  0  0
   -1.7048    1.0772   -2.6861 H   1  0  0  0  0  0  0  0  0  0  0  0
   -0.2689    0.6960   -3.3518 H   0  0  0  0  0  0  0  0  0  0  0  0
    2.8969   -0.9816   -2.1950 H   0  0  0  0  0  0  0  0  0  0  0  0
    4.8699   -0.9705    2.4007 H   0  0  0  0  0  0  0  0  0  0  0  0
   -0.7424   -0.8232    2.2988 H   0  0  0  0  0  0  0  0  0  0  0  0
   -4.6072   -0.8871    0.4424 H   0  0  0  0  0  0  0  0  0  0  0  0
   -2.3270    2.6780    2.2744 H   0  0  0  0  0  0  0  0  0  0  0  0
   -3.8088   -3.0282   -1.1541 H   0  0  0  0  0  0  0  0  0  0  0  0
    4.4285   -2.7876   -1.4793 H   0  0  0  0  0  0  0  0  0  0  0  0
    5.4059   -2.7896    0.7870 H   0  0  0  0  0  0  0  0  0  0  0  0
   -1.0508   -4.7318   -1.6939 H   0  0  0  0  0  0  0  0  0  0  0  0
  1 12  1  0  0  0  0
  1 42  1  0  0  0  0
  2 13  1  0  0  0  0
  2 43  1  0  0  0  0
  3 15  1  0  0  0  0
  3 44  1  0  0  0  0
  4 16  1  0  0  0  0
  4 45  1  0  0  0  0
  5 17  2  0  0  0  0
  6 18  2  0  0  0  0
  7 22  1  0  0  0  0
  7 48  1  0  0  0  0
  8 20  1  0  0  0  0
  8 21  1  0  0  0  0
  8 37  1  0  0  0  0
  9 10  1  0  0  0  0
  9 38  1  0  0  0  0
  9 39  1  0  0  0  0
 10 11  1  0  0  0  0
 10 17  1  0  0  0  0
 10 27  1  0  0  0  0
 11 14  1  0  0  0  0
 11 28  1  0  0  0  0
 11 29  1  0  0  0  0
 12 13  1  0  0  0  0
 12 16  1  0  0  0  0
 12 30  1  0  0  0  0
 13 18  1  0  0  0  0
 13 31  1  0  0  0  0
 14 19  1  0  0  0  0
 14 21  2  0  0  0  0
 15 17  1  0  0  0  0
 15 18  1  0  0  0  0
 15 32  1  0  0  0  0
 16 22  1  0  0  0  0
 16 33  1  0  0  0  0
 19 20  1  0  0  0  0
 19 23  2  0  0  0  0
 20 24  2  0  0  0  0
 21 34  1  0  0  0  0
 22 35  1  0  0  0  0
 22 36  1  0  0  0  0
 23 25  1  0  0  0  0
 23 40  1  0  0  0  0
 24 26  1  0  0  0  0
 24 41  1  0  0  0  0
 25 26  2  0  0  0  0
 25 46  1  0  0  0  0
 26 47  1  0  0  0  0
M  ISO  1  38   2
M  END
> <PUBCHEM_COMPOUND_CID>
129856190

> <PUBCHEM_CONFORMER_RMSD>
1.4

> <PUBCHEM_CONFORMER_DIVERSEORDER>
1
134
6
12
48
56
129
19
53
79
67
29
115
50
121
95
45
70
73
90
2
89
4
132
3
105
43
71
9
30
59
122
63
117
131
93
91
72
51
32
85
39
106
98
28
16
74
76
8
101
65
46
5
100
17
20
107
92
7
83
64
49
33
103
120
136
84
35
47
41
18
102
135
11
77
126
55
44
34
13
60
127
124
24
113
82
87
119
125
42
130
57
23
66
27
14
10
80
52
69
114
75
38
97
118
40
123
86
36
94
22
58
112
104
133
78
21
37
26
15
111
96
137
128
68
88
61
116
99
62
25
81
31
108
109
110
54

> <PUBCHEM_MMFF94_PARTIAL_CHARGES>
38
1 -0.68
10 0.33
11 0.18
12 0.28
13 0.34
14 -0.18
15 0.4
16 0.28
17 0.45
18 0.45
2 -0.68
20 -0.15
21 -0.3
22 0.28
23 -0.15
24 -0.15
25 -0.15
26 -0.15
3 -0.68
34 0.15
37 0.27
38 0.36
39 0.36
4 -0.68
40 0.15
41 0.15
42 0.4
43 0.4
44 0.4
45 0.4
46 0.15
47 0.15
48 0.4
5 -0.57
6 -0.57
7 -0.68
8 0.03
9 -0.99

> <PUBCHEM_EFFECTIVE_ROTOR_COUNT>
9

> <PUBCHEM_PHARMACOPHORE_FEATURES>
19
1 1 acceptor
1 1 donor
1 15 anion
1 2 acceptor
1 2 donor
1 3 acceptor
1 3 donor
1 4 acceptor
1 4 donor
1 5 acceptor
1 6 acceptor
1 7 acceptor
1 7 donor
1 8 cation
1 8 donor
1 9 cation
1 9 donor
5 8 14 19 20 21 rings
6 19 20 23 24 25 26 rings

> <PUBCHEM_HEAVY_ATOM_COUNT>
26

> <PUBCHEM_ATOM_DEF_STEREO_COUNT>
4

> <PUBCHEM_ATOM_UDEF_STEREO_COUNT>
1

> <PUBCHEM_BOND_DEF_STEREO_COUNT>
0

> <PUBCHEM_BOND_UDEF_STEREO_COUNT>
0

> <PUBCHEM_ISOTOPIC_ATOM_COUNT>
1

> <PUBCHEM_COMPONENT_COUNT>
1

> <PUBCHEM_CACTVS_TAUTO_COUNT>
1000

> <PUBCHEM_CONFORMER_ID>
07BD72BE00000001

> <PUBCHEM_MMFF94_ENERGY>
38.7627

> <PUBCHEM_FEATURE_SELFOVERLAP>
96.554

> <PUBCHEM_SHAPE_FINGERPRINT>
10366900 7 17917704725726987768
11370993 70 18130503016223346098
11552529 35 17987518289304040546
12156800 1 13669730144022233224
12403259 327 17632307794975910641
12422481 6 18048067136879735041
12553582 1 18047483505941182347
12633257 1 18059868241765755586
13004483 165 18338792420425143521
13583140 156 17346020277788368912
14081887 123 18271240646407521160
14429115 67 18269271438293854159
14468879 13 14044646369517643131
16752209 62 17314217878517424076
1813 80 17749393714502397733
19026451 147 17404285790978278262
20291156 8 18041007279311310040
20600515 1 17315058090469351424
20775530 9 18194117640902737702
23419403 2 17186673700951303685
23559900 14 18411138039323619288
3027735 51 18047454648536176917
35225 105 18118097226574355886
3797600 57 16267999850212446904
463206 1 17907015436532141987
469060 322 16481014783360001904
508706 21 18196943175316842414
5283178 26 18128833944845872422
602551 16 18263363578155933250

> <PUBCHEM_SHAPE_MULTIPOLES>
484.02
8.33
4.13
1.84
5.05
1.51
0.45
4.6
-2.67
-2.79
1.31
-0.03
-0.33
-0.1

> <PUBCHEM_SHAPE_SELFOVERLAP>
1014.771

> <PUBCHEM_SHAPE_VOLUME>
272.4

> <PUBCHEM_COORDINATE_TYPE>
2
5
10