129890495
  -OEChem-05072106003D

 34 33  0     1  0  0  0  0  0999 V2000
    2.3144   -2.1310    0.0807 P   0  0  0  0  0  0  0  0  0  0  0  0
   -3.9487   -0.3888    0.5623 P   0  0  0  0  0  0  0  0  0  0  0  0
    1.4743   -0.8150    0.4956 O   0  0  0  0  0  0  0  0  0  0  0  0
    1.6280    2.7843   -0.2161 O   0  0  0  0  0  0  0  0  0  0  0  0
    1.3347    1.0676   -2.5776 O   0  0  0  0  0  0  0  0  0  0  0  0
    1.9915    2.8092    2.5433 O   0  0  0  0  0  0  0  0  0  0  0  0
   -2.8735    0.3426   -0.4051 O   0  0  0  0  0  0  0  0  0  0  0  0
   -1.1901    1.5951   -2.0482 O   0  0  0  0  0  0  0  0  0  0  0  0
    3.8445   -1.6635    0.3147 O   0  0  0  0  0  0  0  0  0  0  0  0
    2.0487   -3.1588    1.3006 O   0  0  0  0  0  0  0  0  0  0  0  0
    2.0186   -2.6699   -1.2885 O   0  0  0  0  0  0  0  0  0  0  0  0
   -3.2170   -0.4053    2.0043 O   0  0  0  0  0  0  0  0  0  0  0  0
   -3.8730   -1.9333    0.0891 O   0  0  0  0  0  0  0  0  0  0  0  0
   -5.3239    0.2120    0.5472 O   0  0  0  0  0  0  0  0  0  0  0  0
    1.6153    0.3552   -0.3045 C   0  0  2  0  0  0  0  0  0  0  0  0
    1.3750    1.6103    0.5549 C   0  0  1  0  0  0  0  0  0  0  0  0
    0.7537    0.2468   -1.5719 C   0  0  1  0  0  0  0  0  0  0  0  0
    2.2894    1.6446    1.7799 C   0  0  0  0  0  0  0  0  0  0  0  0
   -0.7087    0.6580   -1.4095 C   0  0  0  0  0  0  0  0  0  0  0  0
   -1.5532   -0.1599   -0.4513 C   0  0  0  0  0  0  0  0  0  0  0  0
    2.6612    0.4084   -0.6383 H   0  0  0  0  0  0  0  0  0  0  0  0
    0.3368    1.6612    0.8991 H   0  0  0  0  0  0  0  0  0  0  0  0
    0.7370   -0.7673   -1.9740 H   0  0  0  0  0  0  0  0  0  0  0  0
    2.1414    0.7693    2.4192 H   0  0  0  0  0  0  0  0  0  0  0  0
    3.3410    1.7041    1.4804 H   0  0  0  0  0  0  0  0  0  0  0  0
   -1.5646   -1.1940   -0.8073 H   0  0  0  0  0  0  0  0  0  0  0  0
   -1.1165   -0.1139    0.5478 H   0  0  0  0  0  0  0  0  0  0  0  0
    1.4731    3.5518    0.3607 H   0  0  0  0  0  0  0  0  0  0  0  0
    1.3720    1.9781   -2.2382 H   0  0  0  0  0  0  0  0  0  0  0  0
    2.5896    2.8076    3.3101 H   0  0  0  0  0  0  0  0  0  0  0  0
    4.5710   -2.2631    0.0412 H   0  0  0  0  0  0  0  0  0  0  0  0
    2.4140   -4.0674    1.2436 H   0  0  0  0  0  0  0  0  0  0  0  0
   -3.7104   -0.7405    2.7830 H   0  0  0  0  0  0  0  0  0  0  0  0
   -4.5075   -2.5777    0.4690 H   0  0  0  0  0  0  0  0  0  0  0  0
  1  3  1  0  0  0  0
  1  9  1  0  0  0  0
  1 10  1  0  0  0  0
  1 11  2  0  0  0  0
  2  7  1  0  0  0  0
  2 12  1  0  0  0  0
  2 13  1  0  0  0  0
  2 14  2  0  0  0  0
  3 15  1  0  0  0  0
  4 16  1  0  0  0  0
  4 28  1  0  0  0  0
  5 17  1  0  0  0  0
  5 29  1  0  0  0  0
  6 18  1  0  0  0  0
  6 30  1  0  0  0  0
  7 20  1  0  0  0  0
  8 19  2  0  0  0  0
  9 31  1  0  0  0  0
 10 32  1  0  0  0  0
 12 33  1  0  0  0  0
 13 34  1  0  0  0  0
 15 16  1  0  0  0  0
 15 17  1  0  0  0  0
 15 21  1  0  0  0  0
 16 18  1  0  0  0  0
 16 22  1  0  0  0  0
 17 19  1  0  0  0  0
 17 23  1  0  0  0  0
 18 24  1  0  0  0  0
 18 25  1  0  0  0  0
 19 20  1  0  0  0  0
 20 26  1  0  0  0  0
 20 27  1  0  0  0  0
M  END
> <PUBCHEM_COMPOUND_CID>
129890495

> <PUBCHEM_CONFORMER_RMSD>
0.8

> <PUBCHEM_CONFORMER_DIVERSEORDER>
1
11
56
44
69
16
60
15
46
25
10
26
71
7
49
66
62
67
43
8
59
17
40
50
33
29
31
13
23
3
48
58
65
32
21
41
38
28
6
5
42
47
57
68
36
45
55
61
9
53
51
39
27
35
12
52
20
24
54
30
2
14
18
4
70
22
34
37
63
19
64

> <PUBCHEM_MMFF94_PARTIAL_CHARGES>
27
1 1.51
10 -0.77
11 -0.7
12 -0.77
13 -0.77
14 -0.7
15 0.28
16 0.28
17 0.34
18 0.28
19 0.45
2 1.51
20 0.34
28 0.4
29 0.4
3 -0.55
30 0.4
31 0.5
32 0.5
33 0.5
34 0.5
4 -0.68
5 -0.68
6 -0.68
7 -0.55
8 -0.57
9 -0.77

> <PUBCHEM_EFFECTIVE_ROTOR_COUNT>
9

> <PUBCHEM_PHARMACOPHORE_FEATURES>
15
1 10 acceptor
1 11 acceptor
1 12 acceptor
1 13 acceptor
1 14 acceptor
1 4 acceptor
1 4 donor
1 5 acceptor
1 5 donor
1 6 acceptor
1 6 donor
1 8 acceptor
1 9 acceptor
4 1 9 10 11 anion
4 2 12 13 14 anion

> <PUBCHEM_HEAVY_ATOM_COUNT>
20

> <PUBCHEM_ATOM_DEF_STEREO_COUNT>
3

> <PUBCHEM_ATOM_UDEF_STEREO_COUNT>
0

> <PUBCHEM_BOND_DEF_STEREO_COUNT>
0

> <PUBCHEM_BOND_UDEF_STEREO_COUNT>
0

> <PUBCHEM_ISOTOPIC_ATOM_COUNT>
0

> <PUBCHEM_COMPONENT_COUNT>
1

> <PUBCHEM_CACTVS_TAUTO_COUNT>
5

> <PUBCHEM_CONFORMER_ID>
07BDF8BF00000001

> <PUBCHEM_MMFF94_ENERGY>
-34.4997

> <PUBCHEM_FEATURE_SELFOVERLAP>
76.226

> <PUBCHEM_SHAPE_FINGERPRINT>
12506688 2 18189899703744789354
13533116 47 18412266147439478315
13583140 156 18129934693835348185
14178342 30 18120372326934112735
14251745 187 17676771959351571707
14252887 29 17458920322135615069
14817 1 16973079372552218484
17357990 137 16486682675406634276
20539784 86 18272082820764019252
20645477 70 17023756752835240543
20723712 36 16845567604629751208
21524375 3 17200782591035289576
23419403 2 18192122959558805312
23526113 38 17830989374506284918
23559900 14 17821451266091734973
31174 14 18343294856016299421
3286 77 18341052939117417723
3797600 57 16700052892860308571
427121 178 17983023541461764330
568465 68 18193823865287131110
81228 2 17459451283336322133

> <PUBCHEM_SHAPE_MULTIPOLES>
348.86
6.9
3.1
2.15
10.3
0.71
-0.19
2.52
3.02
-3.74
1.12
-0.66
-1.21
0.95

> <PUBCHEM_SHAPE_SELFOVERLAP>
652.754

> <PUBCHEM_SHAPE_VOLUME>
217.5

> <PUBCHEM_COORDINATE_TYPE>
2
5
10