129856134
  -OEChem-05072106003D

 38 38  0     1  0  0  0  0  0999 V2000
   -1.0332   -3.1161    0.4004 O   0  0  0  0  0  0  0  0  0  0  0  0
   -3.0271   -1.5637   -0.2426 O   0  0  0  0  0  0  0  0  0  0  0  0
    2.7662   -2.0454   -0.7770 O   0  0  0  0  0  0  0  0  0  0  0  0
    1.5434    0.0137    1.9952 O   0  0  0  0  0  0  0  0  0  0  0  0
    3.3788    0.6466   -1.0867 O   0  0  0  0  0  0  0  0  0  0  0  0
    0.3194   -1.0951   -1.5853 O   0  0  0  0  0  0  0  0  0  0  0  0
    2.8522    3.2706   -0.2761 O   0  0  0  0  0  0  0  0  0  0  0  0
   -2.2532    1.0358   -1.1046 N   0  0  0  0  0  0  0  0  0  0  0  0
   -1.9546    0.5020    0.2245 C   0  0  1  0  0  0  0  0  0  0  0  0
   -3.0223    1.0679    1.1563 C   0  0  0  0  0  0  0  0  0  0  0  0
   -3.8895    1.9450    0.2654 C   0  0  0  0  0  0  0  0  0  0  0  0
   -2.9739    2.2869   -0.8911 C   0  0  0  0  0  0  0  0  0  0  0  0
   -2.0039   -0.9875    0.1249 C   0  0  0  0  0  0  0  0  0  0  0  0
   -0.7334   -1.7360    0.4784 C   0  0  2  0  0  0  0  0  0  0  0  0
    1.8586   -1.5965    0.2141 C   0  0  1  0  0  0  0  0  0  0  0  0
    2.3874   -0.3174    0.8835 C   0  0  1  0  0  0  0  0  0  0  0  0
    0.4678   -1.4292   -0.4088 C   0  0  0  0  0  0  0  0  0  0  0  0
    2.4406    0.9173   -0.0355 C   0  0  1  0  0  0  0  0  0  0  0  0
    2.8767    2.2011    0.6651 C   0  0  0  0  0  0  0  0  0  0  0  0
   -0.9646    0.8332    0.5564 H   0  0  0  0  0  0  0  0  0  0  0  0
   -2.5470    1.6898    1.9247 H   0  0  0  0  0  0  0  0  0  0  0  0
   -3.6219    0.3074    1.6672 H   0  0  0  0  0  0  0  0  0  0  0  0
   -4.7566    1.3740   -0.0889 H   0  0  0  0  0  0  0  0  0  0  0  0
   -4.2563    2.8331    0.7882 H   0  0  0  0  0  0  0  0  0  0  0  0
   -3.5303    2.5904   -1.7821 H   0  0  0  0  0  0  0  0  0  0  0  0
   -2.2790    3.0895   -0.6179 H   0  0  0  0  0  0  0  0  0  0  0  0
   -1.3990    1.1900   -1.6373 H   1  0  0  0  0  0  0  0  0  0  0  0
   -0.4995   -1.5033    1.5205 H   0  0  0  0  0  0  0  0  0  0  0  0
    1.7845   -2.3930    0.9644 H   0  0  0  0  0  0  0  0  0  0  0  0
    3.3974   -0.5123    1.2660 H   0  0  0  0  0  0  0  0  0  0  0  0
    1.4682    1.1073   -0.5038 H   0  0  0  0  0  0  0  0  0  0  0  0
    2.2066    2.4576    1.4907 H   0  0  0  0  0  0  0  0  0  0  0  0
    3.9013    2.1116    1.0406 H   0  0  0  0  0  0  0  0  0  0  0  0
   -1.2549   -3.3241   -0.5236 H   0  0  0  0  0  0  0  0  0  0  0  0
    2.4631   -2.9188   -1.0790 H   0  0  0  0  0  0  0  0  0  0  0  0
    1.5729   -0.7353    2.6147 H   0  0  0  0  0  0  0  0  0  0  0  0
    3.0200   -0.0825   -1.6202 H   0  0  0  0  0  0  0  0  0  0  0  0
    3.1377    4.0714    0.1959 H   0  0  0  0  0  0  0  0  0  0  0  0
  1 14  1  0  0  0  0
  1 34  1  0  0  0  0
  2 13  2  0  0  0  0
  3 15  1  0  0  0  0
  3 35  1  0  0  0  0
  4 16  1  0  0  0  0
  4 36  1  0  0  0  0
  5 18  1  0  0  0  0
  5 37  1  0  0  0  0
  6 17  2  0  0  0  0
  7 19  1  0  0  0  0
  7 38  1  0  0  0  0
  8  9  1  0  0  0  0
  8 12  1  0  0  0  0
  8 27  1  0  0  0  0
  9 10  1  0  0  0  0
  9 13  1  0  0  0  0
  9 20  1  0  0  0  0
 10 11  1  0  0  0  0
 10 21  1  0  0  0  0
 10 22  1  0  0  0  0
 11 12  1  0  0  0  0
 11 23  1  0  0  0  0
 11 24  1  0  0  0  0
 12 25  1  0  0  0  0
 12 26  1  0  0  0  0
 13 14  1  0  0  0  0
 14 17  1  0  0  0  0
 14 28  1  0  0  0  0
 15 16  1  0  0  0  0
 15 17  1  0  0  0  0
 15 29  1  0  0  0  0
 16 18  1  0  0  0  0
 16 30  1  0  0  0  0
 18 19  1  0  0  0  0
 18 31  1  0  0  0  0
 19 32  1  0  0  0  0
 19 33  1  0  0  0  0
M  ISO  1  27   2
M  END
> <PUBCHEM_COMPOUND_CID>
129856134

> <PUBCHEM_CONFORMER_RMSD>
1.2

> <PUBCHEM_CONFORMER_DIVERSEORDER>
1
84
10
66
19
9
73
13
14
79
49
98
51
35
90
44
100
54
32
81
82
12
108
7
15
115
63
67
25
72
17
117
52
89
105
78
3
74
76
22
42
86
68
28
70
77
40
99
55
60
88
30
20
53
62
37
113
112
4
96
107
41
36
31
39
97
23
6
61
83
94
45
85
26
16
8
43
29
59
93
102
95
71
114
11
27
48
38
111
80
106
109
57
69
110
58
92
50
64
2
18
65
21
103
101
34
56
24
47
116
104
5
75
87
33
91
46

> <PUBCHEM_MMFF94_PARTIAL_CHARGES>
23
1 -0.68
12 0.27
13 0.45
14 0.4
15 0.34
16 0.28
17 0.45
18 0.28
19 0.28
2 -0.57
27 0.36
3 -0.68
34 0.4
35 0.4
36 0.4
37 0.4
38 0.4
4 -0.68
5 -0.68
6 -0.57
7 -0.68
8 -0.9
9 0.33

> <PUBCHEM_EFFECTIVE_ROTOR_COUNT>
8

> <PUBCHEM_PHARMACOPHORE_FEATURES>
16
1 1 acceptor
1 1 donor
1 14 anion
1 2 acceptor
1 3 acceptor
1 3 donor
1 4 acceptor
1 4 donor
1 5 acceptor
1 5 donor
1 6 acceptor
1 7 acceptor
1 7 donor
1 8 cation
1 8 donor
5 8 9 10 11 12 rings

> <PUBCHEM_HEAVY_ATOM_COUNT>
19

> <PUBCHEM_ATOM_DEF_STEREO_COUNT>
4

> <PUBCHEM_ATOM_UDEF_STEREO_COUNT>
1

> <PUBCHEM_BOND_DEF_STEREO_COUNT>
0

> <PUBCHEM_BOND_UDEF_STEREO_COUNT>
0

> <PUBCHEM_ISOTOPIC_ATOM_COUNT>
1

> <PUBCHEM_COMPONENT_COUNT>
1

> <PUBCHEM_CACTVS_TAUTO_COUNT>
113

> <PUBCHEM_CONFORMER_ID>
07BD728600000001

> <PUBCHEM_MMFF94_ENERGY>
22.0434

> <PUBCHEM_FEATURE_SELFOVERLAP>
81.236

> <PUBCHEM_SHAPE_FINGERPRINT>
10366900 7 17751654156312470073
10498660 4 18049155875959197100
10608611 8 18411138047512003586
10871710 139 17833555978211599989
11221954 11 18411420626369337825
11615756 256 18341898497629122769
11615756 56 18120082888892824053
11715629 250 18340767160377832544
12633257 1 18262225630270057792
128993 33 18412827996931693033
13134695 92 17272276956279042986
13583140 156 17459181885865390521
13693222 7 18342733005416146489
14251751 93 18267584792047121188
14251757 17 17842871986184668556
14386348 128 18411987957126234001
14648413 74 18411422799928855130
14787075 74 16598159088429389450
14957384 54 17823399523033619705
15775835 57 18260836968432237057
16945 1 18267861872787017419
17041 50 18197785401418643974
18186145 218 18199186179179481483
18219364 16 18264492771928418465
18981168 100 18338223951343814380
20233049 118 17899703358132178326
20304884 271 18411419535405232274
20510252 161 18339079423156970891
20671657 1 18340487738184440819
21041028 32 16822775536050771747
21501502 16 18412261735616554083
21524375 3 18338516331401219143
21731516 1 8502371178254971601
22749437 52 18340474638508282064
23557571 272 17905336478181682854
23558518 356 18339067255251455107
350125 39 18411425015889419243
3524813 1 17972036933746787933
474 4 18269549438868719801
5939293 188 18265889164438391736
6333272 397 18337669707647895601
7097593 13 17824239554244000154
8050 44 18341044211327374584
81228 2 18189623915705835411

> <PUBCHEM_SHAPE_MULTIPOLES>
344.94
6.39
3.31
1.23
1.66
0.53
-0.11
4.14
0.13
-0.75
0.2
-0.21
0.1
0.36

> <PUBCHEM_SHAPE_SELFOVERLAP>
691.417

> <PUBCHEM_SHAPE_VOLUME>
202.4

> <PUBCHEM_COORDINATE_TYPE>
2
5
10