129819637
  -OEChem-05072106003D

 33 32  0     1  0  0  0  0  0999 V2000
    0.6308    1.4160    1.2093 O   0  0  0  0  0  0  0  0  0  0  0  0
    0.2301   -2.1213    0.3894 O   0  0  0  0  0  0  0  0  0  0  0  0
    2.3505   -1.0897   -0.8519 O   0  0  0  0  0  0  0  0  0  0  0  0
    3.8103    1.1849   -1.5171 O   0  0  0  0  0  0  0  0  0  0  0  0
   -1.1788   -0.8061   -1.5259 O   0  0  0  0  0  0  0  0  0  0  0  0
   -3.2610    0.7663   -0.9838 O   0  0  0  0  0  0  0  0  0  0  0  0
    1.0132    0.1111    0.7845 C   0  0  1  0  0  0  0  0  0  0  0  0
   -0.2168   -0.8044    0.6872 C   0  0  1  0  0  0  0  0  0  0  0  0
    1.8717    0.2053   -0.4905 C   0  0  1  0  0  0  0  0  0  0  0  0
    3.0829    1.1178   -0.2947 C   0  0  0  0  0  0  0  0  0  0  0  0
   -1.2518   -0.4051   -0.3633 C   0  0  0  0  0  0  0  0  0  0  0  0
   -2.3944    0.4805    0.0956 C   0  0  0  0  0  0  0  0  0  0  0  0
    0.3532    1.4474    2.6015 C   0  0  0  0  0  0  0  0  0  0  0  0
   -0.6932   -3.1002    0.8453 C   0  0  0  0  0  0  0  0  0  0  0  0
   -4.3466    1.5976   -0.5856 C   0  0  0  0  0  0  0  0  0  0  0  0
    1.6747   -0.3363    1.5425 H   0  0  0  0  0  0  0  0  0  0  0  0
   -0.7326   -0.8241    1.6537 H   0  0  0  0  0  0  0  0  0  0  0  0
    1.2737    0.5844   -1.3273 H   0  0  0  0  0  0  0  0  0  0  0  0
    2.7837    2.1331   -0.0187 H   0  0  0  0  0  0  0  0  0  0  0  0
    3.7556    0.7151    0.4697 H   0  0  0  0  0  0  0  0  0  0  0  0
   -2.9428   -0.0490    0.8819 H   0  0  0  0  0  0  0  0  0  0  0  0
   -1.9767    1.4124    0.4878 H   0  0  0  0  0  0  0  0  0  0  0  0
    2.8883   -0.9883   -1.6558 H   0  0  0  0  0  0  0  0  0  0  0  0
    0.2056    2.4931    2.8874 H   1  0  0  0  0  0  0  0  0  0  0  0
    1.1924    1.0562    3.1852 H   0  0  0  0  0  0  0  0  0  0  0  0
   -0.5665    0.9102    2.8442 H   0  0  0  0  0  0  0  0  0  0  0  0
   -0.3109   -4.0850    0.5625 H   1  0  0  0  0  0  0  0  0  0  0  0
   -1.6762   -2.9690    0.3831 H   0  0  0  0  0  0  0  0  0  0  0  0
   -0.7809   -3.0687    1.9359 H   0  0  0  0  0  0  0  0  0  0  0  0
    4.5750    1.7651   -1.3618 H   0  0  0  0  0  0  0  0  0  0  0  0
   -4.9774    1.7809   -1.4594 H   1  0  0  0  0  0  0  0  0  0  0  0
   -3.9761    2.5574   -0.2130 H   0  0  0  0  0  0  0  0  0  0  0  0
   -4.9469    1.1003    0.1823 H   0  0  0  0  0  0  0  0  0  0  0  0
  1  7  1  0  0  0  0
  1 13  1  0  0  0  0
  2  8  1  0  0  0  0
  2 14  1  0  0  0  0
  3  9  1  0  0  0  0
  3 23  1  0  0  0  0
  4 10  1  0  0  0  0
  4 30  1  0  0  0  0
  5 11  2  0  0  0  0
  6 12  1  0  0  0  0
  6 15  1  0  0  0  0
  7  8  1  0  0  0  0
  7  9  1  0  0  0  0
  7 16  1  0  0  0  0
  8 11  1  0  0  0  0
  8 17  1  0  0  0  0
  9 10  1  0  0  0  0
  9 18  1  0  0  0  0
 10 19  1  0  0  0  0
 10 20  1  0  0  0  0
 11 12  1  0  0  0  0
 12 21  1  0  0  0  0
 12 22  1  0  0  0  0
 13 24  1  0  0  0  0
 13 25  1  0  0  0  0
 13 26  1  0  0  0  0
 14 27  1  0  0  0  0
 14 28  1  0  0  0  0
 14 29  1  0  0  0  0
 15 31  1  0  0  0  0
 15 32  1  0  0  0  0
 15 33  1  0  0  0  0
M  ISO  3  24   2  27   2  31   2
M  END
> <PUBCHEM_COMPOUND_CID>
129819637

> <PUBCHEM_CONFORMER_RMSD>
0.8

> <PUBCHEM_CONFORMER_DIVERSEORDER>
1
77
26
81
116
82
10
92
104
12
103
39
71
62
51
80
9
113
13
102
33
42
32
109
69
94
97
18
84
20
101
50
23
87
25
3
24
112
48
111
16
105
74
91
27
43
114
57
85
55
41
58
110
78
22
36
83
65
54
30
76
98
5
60
88
63
96
11
115
6
64
19
89
49
90
100
72
37
14
95
56
47
15
93
108
46
68
61
73
7
4
67
79
53
31
28
75
99
45
106
29
40
8
38
59
107
35
21
17
44
2
66
34
70
52
86

> <PUBCHEM_MMFF94_PARTIAL_CHARGES>
17
1 -0.56
10 0.28
11 0.45
12 0.34
13 0.28
14 0.28
15 0.28
2 -0.56
23 0.4
3 -0.68
30 0.4
4 -0.68
5 -0.57
6 -0.56
7 0.28
8 0.34
9 0.28

> <PUBCHEM_EFFECTIVE_ROTOR_COUNT>
8

> <PUBCHEM_PHARMACOPHORE_FEATURES>
8
1 1 acceptor
1 2 acceptor
1 3 acceptor
1 3 donor
1 4 acceptor
1 4 donor
1 5 acceptor
1 6 acceptor

> <PUBCHEM_HEAVY_ATOM_COUNT>
15

> <PUBCHEM_ATOM_DEF_STEREO_COUNT>
3

> <PUBCHEM_ATOM_UDEF_STEREO_COUNT>
0

> <PUBCHEM_BOND_DEF_STEREO_COUNT>
0

> <PUBCHEM_BOND_UDEF_STEREO_COUNT>
0

> <PUBCHEM_ISOTOPIC_ATOM_COUNT>
3

> <PUBCHEM_COMPONENT_COUNT>
1

> <PUBCHEM_CACTVS_TAUTO_COUNT>
3

> <PUBCHEM_CONFORMER_ID>
07BCE3F500000001

> <PUBCHEM_MMFF94_ENERGY>
39.2633

> <PUBCHEM_FEATURE_SELFOVERLAP>
40.631

> <PUBCHEM_SHAPE_FINGERPRINT>
10610426 29 13758074060810150376
11031198 65 18336820888855313441
12138202 97 18336836402050658230
12251169 10 11602823514321996164
12491281 212 17532092872524723564
12716301 132 18191572254251385147
13380536 167 17480866320490449601
13380536 261 17772760368185937450
13898156 1 16664264858569719290
14617773 55 17487355741418305792
14817 1 17185264126843600066
15775835 57 18341604898233912317
16945 1 17632856438461807937
18186145 218 18338531750027350204
18534176 82 18193284206930559742
19765921 60 18411697673197836571
19837323 101 17968944213458666587
201361 129 18120375359133304073
20233049 118 17700679684631043137
20653085 51 17604443997554740508
20711985 344 17755573090104756859
20820808 20 18335138644232822657
21061003 4 17270068316723447778
21524375 3 17822283595971922325
21930827 45 18191855936725182427
22713019 5 17203061685276320904
22802520 49 17983015853539240248
23382010 3 18339919415258593781
23526113 38 18130516317773971966
23559900 14 18271528680695948400
25 1 18342178851555701765
2748010 2 17407106029512297610
298252 57 17967535691929634720
430814 3 17240474827579670289
549884 4 18059563694330485377
81228 2 17832127695817646315

> <PUBCHEM_SHAPE_MULTIPOLES>
273.48
5.4
2.38
1.7
2.32
2.09
0.89
-4.19
-3.35
0.49
0.73
-0.54
-0.73
0.21

> <PUBCHEM_SHAPE_SELFOVERLAP>
516.901

> <PUBCHEM_SHAPE_VOLUME>
169.7

> <PUBCHEM_COORDINATE_TYPE>
2
5
10