129821803
  -OEChem-05072106003D

 38 39  0     1  0  0  0  0  0999 V2000
   -0.6298   -2.1573    0.4014 P   0  0  0  0  0  0  0  0  0  0  0  0
    1.0830    0.3677    0.9869 O   0  0  0  0  0  0  0  0  0  0  0  0
    0.6415   -1.9932    1.3587 O   0  0  0  0  0  0  0  0  0  0  0  0
    0.2407   -1.2848   -0.6161 O   0  0  0  0  0  0  0  0  0  0  0  0
    2.6977   -2.5946   -0.5094 O   0  0  0  0  0  0  0  0  0  0  0  0
    2.5421   -0.3490   -2.1418 O   0  0  0  0  0  0  0  0  0  0  0  0
    3.8689    1.3254    0.8170 O   0  0  0  0  0  0  0  0  0  0  0  0
    0.6845    1.5903   -0.9953 O   0  0  0  0  0  0  0  0  0  0  0  0
   -1.7380   -1.1529    0.9984 O   0  0  0  0  0  0  0  0  0  0  0  0
    1.8488    3.7975    0.1502 O   0  0  0  0  0  0  0  0  0  0  0  0
   -1.0140   -3.5433   -0.0024 O   0  0  0  0  0  0  0  0  0  0  0  0
   -2.8041   -0.9324    0.0355 O   0  0  0  0  0  0  0  0  0  0  0  0
   -3.1253    0.9393    1.3495 O   0  0  0  0  0  0  0  0  0  0  0  0
   -5.2130    1.7099   -0.1520 O   0  0  0  0  0  0  0  0  0  0  0  0
    1.1875   -0.9737    0.4583 C   0  0  0  0  0  0  0  0  0  0  0  0
    2.6279   -1.3007    0.0830 C   0  0  2  0  0  0  0  0  0  0  0  0
    3.1874   -0.2415   -0.8752 C   0  0  2  0  0  0  0  0  0  0  0  0
    2.9979    1.1725   -0.3031 C   0  0  1  0  0  0  0  0  0  0  0  0
    1.5387    1.4301    0.1392 C   0  0  2  0  0  0  0  0  0  0  0  0
    1.4082    2.7183    0.9515 C   0  0  0  0  0  0  0  0  0  0  0  0
   -3.4307    0.2254    0.4030 C   0  0  0  0  0  0  0  0  0  0  0  0
   -4.5604    0.5187   -0.5632 C   0  0  2  0  0  0  0  0  0  0  0  0
   -4.0394    0.7284   -1.9743 C   0  0  0  0  0  0  0  0  0  0  0  0
    3.2377   -1.3263    0.9944 H   0  0  0  0  0  0  0  0  0  0  0  0
    4.2504   -0.4514   -1.0438 H   0  0  0  0  0  0  0  0  0  0  0  0
    3.2833    1.9111   -1.0622 H   0  0  0  0  0  0  0  0  0  0  0  0
    1.9934    2.6824    1.8766 H   0  0  0  0  0  0  0  0  0  0  0  0
    0.3646    2.9003    1.2342 H   0  0  0  0  0  0  0  0  0  0  0  0
    3.6268   -2.7585   -0.7447 H   0  0  0  0  0  0  0  0  0  0  0  0
    2.9308    0.3236   -2.7266 H   0  0  0  0  0  0  0  0  0  0  0  0
    4.7794    1.1985    0.5003 H   0  0  0  0  0  0  0  0  0  0  0  0
   -0.1109    2.0776   -0.7235 H   0  0  0  0  0  0  0  0  0  0  0  0
    1.7535    4.6067    0.6807 H   0  0  0  0  0  0  0  0  0  0  0  0
   -5.2880   -0.2987   -0.5290 H   0  0  0  0  0  0  0  0  0  0  0  0
   -3.2959    1.5333   -2.0012 H   0  0  0  0  0  0  0  0  0  0  0  0
   -4.8533    1.0246   -2.6447 H   0  0  0  0  0  0  0  0  0  0  0  0
   -3.5725   -0.1776   -2.3728 H   0  0  0  0  0  0  0  0  0  0  0  0
   -5.6284    1.5335    0.7095 H   0  0  0  0  0  0  0  0  0  0  0  0
  1  3  1  0  0  0  0
  1  4  1  0  0  0  0
  1  9  1  0  0  0  0
  1 11  2  0  0  0  0
  2 15  1  0  0  0  0
  2 19  1  0  0  0  0
  3 15  1  0  0  0  0
  4 15  1  0  0  0  0
  5 16  1  0  0  0  0
  5 29  1  0  0  0  0
  6 17  1  0  0  0  0
  6 30  1  0  0  0  0
  7 18  1  0  0  0  0
  7 31  1  0  0  0  0
  8 19  1  0  0  0  0
  8 32  1  0  0  0  0
  9 12  1  0  0  0  0
 10 20  1  0  0  0  0
 10 33  1  0  0  0  0
 12 21  1  0  0  0  0
 13 21  2  0  0  0  0
 14 22  1  0  0  0  0
 14 38  1  0  0  0  0
 15 16  1  0  0  0  0
 16 17  1  0  0  0  0
 16 24  1  0  0  0  0
 17 18  1  0  0  0  0
 17 25  1  0  0  0  0
 18 19  1  0  0  0  0
 18 26  1  0  0  0  0
 19 20  1  0  0  0  0
 20 27  1  0  0  0  0
 20 28  1  0  0  0  0
 21 22  1  0  0  0  0
 22 23  1  0  0  0  0
 22 34  1  0  0  0  0
 23 35  1  0  0  0  0
 23 36  1  0  0  0  0
 23 37  1  0  0  0  0
M  END
> <PUBCHEM_COMPOUND_CID>
129821803

> <PUBCHEM_CONFORMER_RMSD>
0.8

> <PUBCHEM_CONFORMER_DIVERSEORDER>
1
146
59
33
25
53
90
143
2
205
18
118
69
30
7
130
193
228
230
190
208
85
75
95
63
60
219
122
74
162
38
22
97
29
123
44
232
214
169
105
56
202
142
108
93
172
51
183
115
153
6
207
148
57
26
84
181
71
77
109
42
192
49
224
112
225
52
201
45
4
186
218
216
80
13
124
147
91
78
48
79
133
151
40
156
36
129
88
103
27
31
76
100
155
23
210
67
134
199
99
206
154
231
16
43
176
117
160
14
102
150
227
34
226
113
139
197
163
125
39
167
21
65
170
135
10
12
8
187
159
119
185
5
145
87
194
149
35
86
222
37
50
136
166
41
106
213
220
175
28
171
217
92
204
200
19
191
64
15
131
101
82
58
158
81
89
61
196
198
3
180
83
137
188
174
215
73
11
94
127
24
221
17
203
98
62
47
9
189
114
212
184
111
229
223
182
70
179
66
144
164
161
128
140
168
152
107
72
211
141
55
20
96
110
132
32
68
177
165
54
157
173
233
126
46
116
178
104
120
121
209
195
138

> <PUBCHEM_MMFF94_PARTIAL_CHARGES>
28
1 1.51
10 -0.68
11 -0.7
12 -0.15
13 -0.57
14 -0.68
15 0.77
16 0.28
17 0.28
18 0.28
19 0.56
2 -0.54
20 0.28
21 0.66
22 0.34
29 0.4
3 -0.53
30 0.4
31 0.4
32 0.4
33 0.4
38 0.4
4 -0.53
5 -0.68
6 -0.68
7 -0.68
8 -0.68
9 -0.27

> <PUBCHEM_EFFECTIVE_ROTOR_COUNT>
6.4

> <PUBCHEM_PHARMACOPHORE_FEATURES>
17
1 10 acceptor
1 10 donor
1 11 acceptor
1 13 acceptor
1 14 acceptor
1 14 donor
1 2 acceptor
1 5 acceptor
1 5 donor
1 6 acceptor
1 6 donor
1 7 acceptor
1 7 donor
1 8 acceptor
1 8 donor
4 1 3 4 15 rings
6 2 15 16 17 18 19 rings

> <PUBCHEM_HEAVY_ATOM_COUNT>
23

> <PUBCHEM_ATOM_DEF_STEREO_COUNT>
4

> <PUBCHEM_ATOM_UDEF_STEREO_COUNT>
1

> <PUBCHEM_BOND_DEF_STEREO_COUNT>
0

> <PUBCHEM_BOND_UDEF_STEREO_COUNT>
0

> <PUBCHEM_ISOTOPIC_ATOM_COUNT>
0

> <PUBCHEM_COMPONENT_COUNT>
1

> <PUBCHEM_CACTVS_TAUTO_COUNT>
1

> <PUBCHEM_CONFORMER_ID>
07BCEC6B00000001

> <PUBCHEM_MMFF94_ENERGY>
46.5149

> <PUBCHEM_FEATURE_SELFOVERLAP>
86.379

> <PUBCHEM_SHAPE_FINGERPRINT>
10498660 4 18260545628432599349
11370993 70 18339634672017824097
12596599 1 17918000438667620653
12654215 9 18409455803854766350
12730499 353 18261680268993619291
12788726 201 17977677411724149106
13134695 92 18339356349378050254
13294875 104 18335405890209865450
13464514 151 18339365274694468584
14713325 29 16017519041358570044
15210252 30 17896332332474980524
16945 1 18269573769847785330
17093844 170 17823967944685933349
18186145 218 18342188764514534683
18219364 16 18261123971490618609
18981168 100 18265049330738316551
192875 21 18200587000027201057
20233049 118 18260267408655873084
21524375 3 18260267473328926235
21639500 275 18337096887875419775
221357 26 18338513015928995189
231179 274 18186515501548737745
23558518 356 17828199127443361739
23559900 14 18270695263730124948
238 59 17987794266838851665
25 1 18335707126088595803
2748010 2 17907029717651030104
3060560 45 18270392789941100239
350125 39 18120947362492806659
3524813 1 18114177497770605845
474 4 18411978036447761849
5939293 188 18410569569941077200
7808743 9 17677627538396005156
7832392 63 18340771532607281382
81228 2 17611759198654183619

> <PUBCHEM_SHAPE_MULTIPOLES>
400.88
7.78
3.41
1.36
9.61
0.14
0.48
3.51
1.82
-1.62
-0.59
0.24
0.12
0.78

> <PUBCHEM_SHAPE_SELFOVERLAP>
815.42

> <PUBCHEM_SHAPE_VOLUME>
233.2

> <PUBCHEM_COORDINATE_TYPE>
2
5
10