129856184
  -OEChem-05072106003D

 52 53  0     1  0  0  0  0  0999 V2000
    4.0330    0.2682    0.2315 O   0  0  0  0  0  0  0  0  0  0  0  0
   -4.1202    0.5343   -0.3187 O   0  0  0  0  0  0  0  0  0  0  0  0
    0.1164    0.8076    1.6338 O   0  0  0  0  0  0  0  0  0  0  0  0
    2.0307    1.1694   -1.4791 O   0  0  0  0  0  0  0  0  0  0  0  0
   -0.2334    3.2842    0.2142 O   0  0  0  0  0  0  0  0  0  0  0  0
    4.6403   -1.6780    1.3179 O   0  0  0  0  0  0  0  0  0  0  0  0
   -4.3610   -1.4452   -1.4854 O   0  0  0  0  0  0  0  0  0  0  0  0
   -2.7597    2.6407    0.5836 O   0  0  0  0  0  0  0  0  0  0  0  0
    7.2094   -1.2972    0.8405 N   0  0  0  0  0  0  0  0  0  0  0  0
   -6.9286   -1.6434   -0.9010 N   0  0  0  0  0  0  0  0  0  0  0  0
    6.3107   -0.2640    0.3254 C   0  0  1  0  0  0  0  0  0  0  0  0
    6.5344   -0.2243   -1.1835 C   0  0  0  0  0  0  0  0  0  0  0  0
   -6.2464   -0.4671   -0.3614 C   0  0  1  0  0  0  0  0  0  0  0  0
    7.6095   -1.2688   -1.4442 C   0  0  0  0  0  0  0  0  0  0  0  0
   -6.4056   -0.5452    1.1542 C   0  0  0  0  0  0  0  0  0  0  0  0
   -7.2230   -1.8059    1.3941 C   0  0  0  0  0  0  0  0  0  0  0  0
    8.3138   -1.3905   -0.1093 C   0  0  0  0  0  0  0  0  0  0  0  0
   -7.9446   -2.0135    0.0793 C   0  0  0  0  0  0  0  0  0  0  0  0
    4.9195   -0.6631    0.6939 C   0  0  0  0  0  0  0  0  0  0  0  0
    0.3168    0.9497    0.2304 C   0  0  2  0  0  0  0  0  0  0  0  0
    1.8153    1.1419   -0.0685 C   0  0  1  0  0  0  0  0  0  0  0  0
   -4.8201   -0.5429   -0.7981 C   0  0  0  0  0  0  0  0  0  0  0  0
   -0.6149    2.0306   -0.3387 C   0  0  1  0  0  0  0  0  0  0  0  0
    2.6615    0.0103    0.5156 C   0  0  0  0  0  0  0  0  0  0  0  0
   -2.1041    1.8249   -0.0664 C   0  0  0  0  0  0  0  0  0  0  0  0
   -2.7497    0.5876   -0.6602 C   0  0  0  0  0  0  0  0  0  0  0  0
    6.5419    0.7028    0.7874 H   0  0  0  0  0  0  0  0  0  0  0  0
    6.9096    0.7646   -1.4734 H   0  0  0  0  0  0  0  0  0  0  0  0
    5.6392   -0.4323   -1.7788 H   0  0  0  0  0  0  0  0  0  0  0  0
   -6.6966    0.4486   -0.7620 H   0  0  0  0  0  0  0  0  0  0  0  0
    7.1433   -2.2231   -1.7190 H   0  0  0  0  0  0  0  0  0  0  0  0
    8.2865   -0.9748   -2.2516 H   0  0  0  0  0  0  0  0  0  0  0  0
   -6.9678    0.3266    1.5100 H   0  0  0  0  0  0  0  0  0  0  0  0
   -5.4608   -0.5847    1.7063 H   0  0  0  0  0  0  0  0  0  0  0  0
   -6.5539   -2.6503    1.6008 H   0  0  0  0  0  0  0  0  0  0  0  0
   -7.9100   -1.7003    2.2389 H   0  0  0  0  0  0  0  0  0  0  0  0
    8.8525   -2.3369   -0.0118 H   0  0  0  0  0  0  0  0  0  0  0  0
    9.0198   -0.5651    0.0389 H   0  0  0  0  0  0  0  0  0  0  0  0
   -8.2750   -3.0476   -0.0511 H   0  0  0  0  0  0  0  0  0  0  0  0
   -8.8150   -1.3518    0.0003 H   0  0  0  0  0  0  0  0  0  0  0  0
    7.5457   -1.0601    1.7721 H   1  0  0  0  0  0  0  0  0  0  0  0
   -7.3488   -1.4409   -1.8064 H   1  0  0  0  0  0  0  0  0  0  0  0
    0.0221   -0.0061   -0.2215 H   0  0  0  0  0  0  0  0  0  0  0  0
    2.1666    2.0970    0.3394 H   0  0  0  0  0  0  0  0  0  0  0  0
   -0.4933    2.1093   -1.4244 H   0  0  0  0  0  0  0  0  0  0  0  0
    2.5266   -0.0558    1.6008 H   0  0  0  0  0  0  0  0  0  0  0  0
    2.3828   -0.9437    0.0518 H   0  0  0  0  0  0  0  0  0  0  0  0
   -2.6383    0.6341   -1.7486 H   0  0  0  0  0  0  0  0  0  0  0  0
   -2.2458   -0.2969   -0.2594 H   0  0  0  0  0  0  0  0  0  0  0  0
   -0.8078    0.5450    1.7800 H   0  0  0  0  0  0  0  0  0  0  0  0
    2.9855    1.2809   -1.6264 H   0  0  0  0  0  0  0  0  0  0  0  0
   -0.2749    3.2062    1.1829 H   0  0  0  0  0  0  0  0  0  0  0  0
  1 19  1  0  0  0  0
  1 24  1  0  0  0  0
  2 22  1  0  0  0  0
  2 26  1  0  0  0  0
  3 20  1  0  0  0  0
  3 50  1  0  0  0  0
  4 21  1  0  0  0  0
  4 51  1  0  0  0  0
  5 23  1  0  0  0  0
  5 52  1  0  0  0  0
  6 19  2  0  0  0  0
  7 22  2  0  0  0  0
  8 25  2  0  0  0  0
  9 11  1  0  0  0  0
  9 17  1  0  0  0  0
  9 41  1  0  0  0  0
 10 13  1  0  0  0  0
 10 18  1  0  0  0  0
 10 42  1  0  0  0  0
 11 12  1  0  0  0  0
 11 19  1  0  0  0  0
 11 27  1  0  0  0  0
 12 14  1  0  0  0  0
 12 28  1  0  0  0  0
 12 29  1  0  0  0  0
 13 15  1  0  0  0  0
 13 22  1  0  0  0  0
 13 30  1  0  0  0  0
 14 17  1  0  0  0  0
 14 31  1  0  0  0  0
 14 32  1  0  0  0  0
 15 16  1  0  0  0  0
 15 33  1  0  0  0  0
 15 34  1  0  0  0  0
 16 18  1  0  0  0  0
 16 35  1  0  0  0  0
 16 36  1  0  0  0  0
 17 37  1  0  0  0  0
 17 38  1  0  0  0  0
 18 39  1  0  0  0  0
 18 40  1  0  0  0  0
 20 21  1  0  0  0  0
 20 23  1  0  0  0  0
 20 43  1  0  0  0  0
 21 24  1  0  0  0  0
 21 44  1  0  0  0  0
 23 25  1  0  0  0  0
 23 45  1  0  0  0  0
 24 46  1  0  0  0  0
 24 47  1  0  0  0  0
 25 26  1  0  0  0  0
 26 48  1  0  0  0  0
 26 49  1  0  0  0  0
M  ISO  2  41   2  42   2
M  END
> <PUBCHEM_COMPOUND_CID>
129856184

> <PUBCHEM_CONFORMER_RMSD>
1.2

> <PUBCHEM_CONFORMER_DIVERSEORDER>
1
61
4
11
135
122
52
67
92
141
71
152
37
96
138
137
80
112
150
83
139
153
66
119
110
105
57
43
47
102
38
8
75
18
136
117
129
147
20
58
54
127
161
3
79
13
87
25
134
10
17
154
89
78
64
93
81
55
30
90
21
19
53
70
133
86
148
98
100
115
132
97
60
99
5
29
33
36
35
44
69
145
74
68
22
24
125
46
45
162
59
151
73
40
124
7
9
160
49
121
159
156
118
84
51
106
31
155
123
76
158
111
163
131
85
39
65
101
62
107
41
94
104
6
130
72
15
48
95
26
16
146
157
113
103
77
143
116
42
126
50
108
91
109
23
12
114
82
140
144
27
34
149
128
14
142
120
63
56
2
28
88
32

> <PUBCHEM_MMFF94_PARTIAL_CHARGES>
27
1 -0.43
10 -0.9
11 0.33
13 0.33
17 0.27
18 0.27
19 0.66
2 -0.43
20 0.28
21 0.28
22 0.66
23 0.34
24 0.28
25 0.45
26 0.34
3 -0.68
4 -0.68
41 0.36
42 0.36
5 -0.68
50 0.4
51 0.4
52 0.4
6 -0.57
7 -0.57
8 -0.57
9 -0.9

> <PUBCHEM_EFFECTIVE_ROTOR_COUNT>
13

> <PUBCHEM_PHARMACOPHORE_FEATURES>
15
1 10 cation
1 10 donor
1 3 acceptor
1 3 donor
1 4 acceptor
1 4 donor
1 5 acceptor
1 5 donor
1 6 acceptor
1 7 acceptor
1 8 acceptor
1 9 cation
1 9 donor
5 10 13 15 16 18 rings
5 9 11 12 14 17 rings

> <PUBCHEM_HEAVY_ATOM_COUNT>
26

> <PUBCHEM_ATOM_DEF_STEREO_COUNT>
5

> <PUBCHEM_ATOM_UDEF_STEREO_COUNT>
0

> <PUBCHEM_BOND_DEF_STEREO_COUNT>
0

> <PUBCHEM_BOND_UDEF_STEREO_COUNT>
0

> <PUBCHEM_ISOTOPIC_ATOM_COUNT>
2

> <PUBCHEM_COMPONENT_COUNT>
1

> <PUBCHEM_CACTVS_TAUTO_COUNT>
5

> <PUBCHEM_CONFORMER_ID>
07BD72B800000001

> <PUBCHEM_MMFF94_ENERGY>
31.7253

> <PUBCHEM_FEATURE_SELFOVERLAP>
76.14

> <PUBCHEM_SHAPE_FINGERPRINT>
10 15 13470690351519132450
10162869 55 17094961044847022194
11297750 10 12389308541300085528
11475781 23 11097857359285473632
11497681 19 18188207581973916718
12166972 35 17967814967835981348
12760667 363 18410009958005283457
13668630 136 18186237333570341926
13673619 4 18272647952344965240
13690498 29 18113607981186897965
14123256 34 18411136943847891821
14178184 131 18268993258037808927
14428016 86 8646776611688837309
14429380 56 16081096991823430582
14556957 393 16951138274375223068
14729087 3 8934999269731525071
14767858 380 17822010891703513210
15183329 4 15936404533291792312
15350500 55 12247411068567084091
15510800 12 18339938068281188855
17134984 74 17095518513509551570
1818759 1 18409456885670008518
18335252 98 18060699486533155414
21150785 3 16226048890239881550
21267235 1 18411138043227735253
21403212 168 12175623966672954257
21585483 132 17243281739944982522
21591340 7 10952045633199826157
22288116 15 13118291408188740057
23389318 12 17967259710959602004
23522609 53 18194996043150928001
23576562 1 14274037578782712966
246663 6 18413390938284578174
2835820 25 16558204713826141179
2838139 119 10447923967212191163
3004659 81 17749383797855544817
306946 40 13840272533408771982
312425 54 15769775771079970447
3178227 256 15913323586214394286
3383291 50 18409447011762170323
393628 179 8286201613288880015
406291 66 18409165519430990598
4107672 100 17822000966408996437
445580 204 10881397634527621783
4461854 278 17988648522754751862
484989 97 17459200736360957979
54039377 194 18335706056995128135
5470011 282 17458063772259716102
5937810 71 13623796208528793631
6327066 14 9079118860613232617
636775 8 18409174303061195214
9896288 288 18129668470287785457
9980921 7 16733562632416856620
9995097 26 18272939324049399942
999808 66 18202001018987862247

> <PUBCHEM_SHAPE_MULTIPOLES>
478.15
26.93
2.45
1.3
7.75
1.35
-0.04
-24.51
-1.23
-2.13
0.22
0.07
-0.38
-0.14

> <PUBCHEM_SHAPE_SELFOVERLAP>
972.024

> <PUBCHEM_SHAPE_VOLUME>
278

> <PUBCHEM_COORDINATE_TYPE>
2
5
10