129856228
  -OEChem-05072106003D

 38 38  0     1  0  0  0  0  0999 V2000
    1.7008   -0.0969   -0.3527 O   0  0  0  0  0  0  0  0  0  0  0  0
   -0.4586   -1.4828    0.7262 O   0  0  0  0  0  0  0  0  0  0  0  0
   -2.2230    1.2424   -0.9899 O   0  0  0  0  0  0  0  0  0  0  0  0
   -3.2351   -1.4093   -1.4537 O   0  0  0  0  0  0  0  0  0  0  0  0
    2.8157    1.9006   -0.0304 O   0  0  0  0  0  0  0  0  0  0  0  0
   -5.4863   -0.1933   -0.8317 O   0  0  0  0  0  0  0  0  0  0  0  0
   -6.2004    0.9851    1.4494 O   0  0  0  0  0  0  0  0  0  0  0  0
    5.1819    0.7918   -0.4119 N   0  0  0  0  0  0  0  0  0  0  0  0
    4.0359   -0.1113   -0.5183 C   0  0  1  0  0  0  0  0  0  0  0  0
    4.2524   -1.1936    0.5355 C   0  0  0  0  0  0  0  0  0  0  0  0
    5.5775   -0.8364    1.1922 C   0  0  0  0  0  0  0  0  0  0  0  0
    6.2765    0.0015    0.1424 C   0  0  0  0  0  0  0  0  0  0  0  0
   -0.6698   -0.4767   -0.2639 C   0  0  1  0  0  0  0  0  0  0  0  0
   -2.0584    0.1622   -0.0758 C   0  0  2  0  0  0  0  0  0  0  0  0
    2.8072    0.7007   -0.2700 C   0  0  0  0  0  0  0  0  0  0  0  0
    0.4527    0.5536   -0.1357 C   0  0  0  0  0  0  0  0  0  0  0  0
   -3.2488   -0.8047   -0.1664 C   0  0  1  0  0  0  0  0  0  0  0  0
   -4.6244   -0.1757    0.0484 C   0  0  0  0  0  0  0  0  0  0  0  0
   -4.8958    0.4429    1.4063 C   0  0  0  0  0  0  0  0  0  0  0  0
    3.9855   -0.5412   -1.5254 H   0  0  0  0  0  0  0  0  0  0  0  0
    4.3404   -2.1709    0.0457 H   0  0  0  0  0  0  0  0  0  0  0  0
    3.4552   -1.2625    1.2830 H   0  0  0  0  0  0  0  0  0  0  0  0
    5.3971   -0.2432    2.0972 H   0  0  0  0  0  0  0  0  0  0  0  0
    6.1529   -1.7229    1.4744 H   0  0  0  0  0  0  0  0  0  0  0  0
    7.0561    0.6358    0.5728 H   0  0  0  0  0  0  0  0  0  0  0  0
    6.7242   -0.6324   -0.6319 H   0  0  0  0  0  0  0  0  0  0  0  0
    5.4312    1.1773   -1.3210 H   1  0  0  0  0  0  0  0  0  0  0  0
   -0.6010   -0.9585   -1.2463 H   0  0  0  0  0  0  0  0  0  0  0  0
   -2.0727    0.6037    0.9290 H   0  0  0  0  0  0  0  0  0  0  0  0
    0.3323    1.3536   -0.8745 H   0  0  0  0  0  0  0  0  0  0  0  0
    0.4539    0.9827    0.8737 H   0  0  0  0  0  0  0  0  0  0  0  0
   -3.1449   -1.6113    0.5673 H   0  0  0  0  0  0  0  0  0  0  0  0
    0.4289   -1.8533    0.5811 H   0  0  0  0  0  0  0  0  0  0  0  0
   -3.0391    1.7142   -0.7532 H   0  0  0  0  0  0  0  0  0  0  0  0
   -3.2612   -0.6975   -2.1161 H   0  0  0  0  0  0  0  0  0  0  0  0
   -4.8052   -0.3304    2.1739 H   0  0  0  0  0  0  0  0  0  0  0  0
   -4.1827    1.2495    1.5907 H   0  0  0  0  0  0  0  0  0  0  0  0
   -6.3304    1.3503    2.3411 H   0  0  0  0  0  0  0  0  0  0  0  0
  1 15  1  0  0  0  0
  1 16  1  0  0  0  0
  2 13  1  0  0  0  0
  2 33  1  0  0  0  0
  3 14  1  0  0  0  0
  3 34  1  0  0  0  0
  4 17  1  0  0  0  0
  4 35  1  0  0  0  0
  5 15  2  0  0  0  0
  6 18  2  0  0  0  0
  7 19  1  0  0  0  0
  7 38  1  0  0  0  0
  8  9  1  0  0  0  0
  8 12  1  0  0  0  0
  8 27  1  0  0  0  0
  9 10  1  0  0  0  0
  9 15  1  0  0  0  0
  9 20  1  0  0  0  0
 10 11  1  0  0  0  0
 10 21  1  0  0  0  0
 10 22  1  0  0  0  0
 11 12  1  0  0  0  0
 11 23  1  0  0  0  0
 11 24  1  0  0  0  0
 12 25  1  0  0  0  0
 12 26  1  0  0  0  0
 13 14  1  0  0  0  0
 13 16  1  0  0  0  0
 13 28  1  0  0  0  0
 14 17  1  0  0  0  0
 14 29  1  0  0  0  0
 16 30  1  0  0  0  0
 16 31  1  0  0  0  0
 17 18  1  0  0  0  0
 17 32  1  0  0  0  0
 18 19  1  0  0  0  0
 19 36  1  0  0  0  0
 19 37  1  0  0  0  0
M  ISO  1  27   2
M  END
> <PUBCHEM_COMPOUND_CID>
129856228

> <PUBCHEM_CONFORMER_RMSD>
1

> <PUBCHEM_CONFORMER_DIVERSEORDER>
1
78
75
104
109
71
46
43
134
102
61
119
41
106
141
22
80
59
76
51
31
16
9
118
92
96
52
69
123
90
65
85
105
132
55
137
19
97
68
112
17
138
32
122
127
82
36
45
47
50
62
121
4
35
40
74
64
120
57
87
113
116
66
18
94
72
135
8
13
15
98
110
30
54
48
49
11
139
29
25
79
81
33
93
2
12
21
14
126
128
28
3
86
67
130
60
125
129
131
114
34
101
107
115
58
23
63
73
99
53
83
27
91
7
136
108
44
77
56
100
89
117
88
10
133
20
38
140
84
124
24
37
39
42
6
70
5
111
26
103
95

> <PUBCHEM_MMFF94_PARTIAL_CHARGES>
22
1 -0.43
12 0.27
13 0.28
14 0.28
15 0.66
16 0.28
17 0.34
18 0.45
19 0.34
2 -0.68
27 0.36
3 -0.68
33 0.4
34 0.4
35 0.4
38 0.4
4 -0.68
5 -0.57
6 -0.57
7 -0.68
8 -0.9
9 0.33

> <PUBCHEM_EFFECTIVE_ROTOR_COUNT>
9

> <PUBCHEM_PHARMACOPHORE_FEATURES>
13
1 2 acceptor
1 2 donor
1 3 acceptor
1 3 donor
1 4 acceptor
1 4 donor
1 5 acceptor
1 6 acceptor
1 7 acceptor
1 7 donor
1 8 cation
1 8 donor
5 8 9 10 11 12 rings

> <PUBCHEM_HEAVY_ATOM_COUNT>
19

> <PUBCHEM_ATOM_DEF_STEREO_COUNT>
4

> <PUBCHEM_ATOM_UDEF_STEREO_COUNT>
0

> <PUBCHEM_BOND_DEF_STEREO_COUNT>
0

> <PUBCHEM_BOND_UDEF_STEREO_COUNT>
0

> <PUBCHEM_ISOTOPIC_ATOM_COUNT>
1

> <PUBCHEM_COMPONENT_COUNT>
1

> <PUBCHEM_CACTVS_TAUTO_COUNT>
10

> <PUBCHEM_CONFORMER_ID>
07BD72E400000001

> <PUBCHEM_MMFF94_ENERGY>
24.1585

> <PUBCHEM_FEATURE_SELFOVERLAP>
65.998

> <PUBCHEM_SHAPE_FINGERPRINT>
10014705 185 13686291383502501853
10366900 7 9007056868338798870
10912923 1 18343018938510836102
11089746 13 17275098427675106153
11287383 113 15574719114225468086
11315181 36 18130786798045471717
11405975 8 18271525406870390491
117890 112 17132117926708246834
12091667 2 17458341948980812767
12236239 1 18130787862775569386
12596602 18 17417807374897193058
12616971 3 18409449214842230172
12916748 109 16298387959491942604
13073987 5 17603860058323061840
13533116 47 18340767049357880386
1420 363 16588029004239551081
14251718 22 13479135696179413762
14251764 18 18411420643464583523
14341114 176 17676492748080835140
14455015 7 17240203218269393690
14528608 73 8574706906143866962
15048467 5 17418098685390813137
15183329 4 18410854356326841494
15375358 24 12319459904491338604
16079462 125 15482665749826560970
17834076 25 16415478255579418702
17844677 252 15791737394721136021
19489759 90 16486976193845877563
200 152 18273210919472526015
20281389 69 18411702088957324161
20645477 70 17749103354140678714
21033648 29 17313931017677994525
21150785 3 12535339078999967097
21267235 1 18114184091320845354
21623969 137 17676496029230511378
220451 1 18407761452146924494
2297311 6 14634871933653261503
23035841 295 14056721244894522721
23402539 116 18060415824405429853
23536379 177 17561367270444928666
23557571 272 15625954114149314096
23559900 14 18189611808319290424
300161 21 16271925995549657206
5104073 3 18340205318288532411
5283173 99 14189306906543925643
542803 24 18060420226952525864
59755656 215 17531241717006610650

> <PUBCHEM_SHAPE_MULTIPOLES>
344.94
16.17
1.29
1.11
1.01
0.08
0.17
-0.01
3.9
0.52
0
-1.28
-0.08
-1.19

> <PUBCHEM_SHAPE_SELFOVERLAP>
686.987

> <PUBCHEM_SHAPE_VOLUME>
203.9

> <PUBCHEM_COORDINATE_TYPE>
2
5
10