129891453
  -OEChem-05072106003D

 51 52  0     1  0  0  0  0  0999 V2000
    4.5678   -2.1717    0.3416 P   0  0  0  0  0  0  0  0  0  0  0  0
    0.9321    0.0771    0.4951 O   0  0  0  0  0  0  0  0  0  0  0  0
   -2.3320   -0.5263    1.1721 O   0  0  0  0  0  0  0  0  0  0  0  0
   -0.5419    0.8821    2.1009 O   0  0  0  0  0  0  0  0  0  0  0  0
   -2.1261    2.0790    0.1699 O   0  0  0  0  0  0  0  0  0  0  0  0
   -0.9496   -1.2895   -0.5971 O   0  0  0  0  0  0  0  0  0  0  0  0
   -0.2552    3.5277    0.9788 O   0  0  0  0  0  0  0  0  0  0  0  0
    2.3474    3.8907   -0.1882 O   0  0  0  0  0  0  0  0  0  0  0  0
   -3.9470    0.7805   -0.8841 O   0  0  0  0  0  0  0  0  0  0  0  0
    3.0571    1.7771   -1.9832 O   0  0  0  0  0  0  0  0  0  0  0  0
   -5.0484   -1.6420   -1.7719 O   0  0  0  0  0  0  0  0  0  0  0  0
   -5.2115   -0.9314    0.9224 O   0  0  0  0  0  0  0  0  0  0  0  0
    3.4773   -0.9783    0.2405 O   0  0  0  0  0  0  0  0  0  0  0  0
    5.3072   -2.1382   -1.0962 O   0  0  0  0  0  0  0  0  0  0  0  0
    3.6556   -3.5044    0.2598 O   0  0  0  0  0  0  0  0  0  0  0  0
    5.4777   -2.0986    1.5329 O   0  0  0  0  0  0  0  0  0  0  0  0
   -0.0177    1.1083    0.7834 C   0  0  2  0  0  0  0  0  0  0  0  0
   -1.1990    1.0663   -0.1938 C   0  0  1  0  0  0  0  0  0  0  0  0
   -1.8921   -0.2986   -0.1763 C   0  0  2  0  0  0  0  0  0  0  0  0
    0.6933    2.4709    0.8365 C   0  0  1  0  0  0  0  0  0  0  0  0
    1.5318    2.7377   -0.4115 C   0  0  2  0  0  0  0  0  0  0  0  0
   -3.0935   -0.3340   -1.1411 C   0  0  1  0  0  0  0  0  0  0  0  0
    2.4495    1.5545   -0.7129 C   0  0  1  0  0  0  0  0  0  0  0  0
    1.6623    0.2403   -0.7229 C   0  0  1  0  0  0  0  0  0  0  0  0
   -3.8748   -1.6428   -0.9678 C   0  0  1  0  0  0  0  0  0  0  0  0
   -4.2456   -1.8905    0.4938 C   0  0  1  0  0  0  0  0  0  0  0  0
   -3.0048   -1.7730    1.3735 C   0  0  0  0  0  0  0  0  0  0  0  0
    2.5801   -0.9731   -0.8543 C   0  0  0  0  0  0  0  0  0  0  0  0
   -0.8630    1.2823   -1.2131 H   0  0  0  0  0  0  0  0  0  0  0  0
    1.3436    2.5191    1.7200 H   0  0  0  0  0  0  0  0  0  0  0  0
    0.8961    2.9799   -1.2708 H   0  0  0  0  0  0  0  0  0  0  0  0
   -2.7580   -0.2488   -2.1818 H   0  0  0  0  0  0  0  0  0  0  0  0
    3.2542    1.5269    0.0310 H   0  0  0  0  0  0  0  0  0  0  0  0
    0.9817    0.2147   -1.5813 H   0  0  0  0  0  0  0  0  0  0  0  0
   -3.2697   -2.4837   -1.3226 H   0  0  0  0  0  0  0  0  0  0  0  0
   -4.7086   -2.8771    0.6051 H   0  0  0  0  0  0  0  0  0  0  0  0
   -3.2850   -1.8102    2.4313 H   0  0  0  0  0  0  0  0  0  0  0  0
   -2.3057   -2.5955    1.1862 H   0  0  0  0  0  0  0  0  0  0  0  0
    3.1377   -0.9377   -1.7951 H   0  0  0  0  0  0  0  0  0  0  0  0
    1.9849   -1.8916   -0.8267 H   0  0  0  0  0  0  0  0  0  0  0  0
    0.1148    1.1771    2.7530 H   0  0  0  0  0  0  0  0  0  0  0  0
   -2.4471    1.8793    1.0660 H   0  0  0  0  0  0  0  0  0  0  0  0
   -1.3999   -2.0339   -1.0214 H   0  0  0  0  0  0  0  0  0  0  0  0
    0.2405    4.3641    1.0024 H   0  0  0  0  0  0  0  0  0  0  0  0
    2.9168    3.7153    0.5803 H   0  0  0  0  0  0  0  0  0  0  0  0
   -4.7131    0.7023   -1.4779 H   0  0  0  0  0  0  0  0  0  0  0  0
    2.3544    1.7847   -2.6554 H   0  0  0  0  0  0  0  0  0  0  0  0
   -5.5065   -2.4872   -1.6260 H   0  0  0  0  0  0  0  0  0  0  0  0
   -5.4308   -1.1294    1.8488 H   0  0  0  0  0  0  0  0  0  0  0  0
    6.0694   -2.7356   -1.2519 H   0  0  0  0  0  0  0  0  0  0  0  0
    4.0799   -4.3788    0.3923 H   0  0  0  0  0  0  0  0  0  0  0  0
  1 13  1  0  0  0  0
  1 14  1  0  0  0  0
  1 15  1  0  0  0  0
  1 16  2  0  0  0  0
  2 17  1  0  0  0  0
  2 24  1  0  0  0  0
  3 19  1  0  0  0  0
  3 27  1  0  0  0  0
  4 17  1  0  0  0  0
  4 41  1  0  0  0  0
  5 18  1  0  0  0  0
  5 42  1  0  0  0  0
  6 19  1  0  0  0  0
  6 43  1  0  0  0  0
  7 20  1  0  0  0  0
  7 44  1  0  0  0  0
  8 21  1  0  0  0  0
  8 45  1  0  0  0  0
  9 22  1  0  0  0  0
  9 46  1  0  0  0  0
 10 23  1  0  0  0  0
 10 47  1  0  0  0  0
 11 25  1  0  0  0  0
 11 48  1  0  0  0  0
 12 26  1  0  0  0  0
 12 49  1  0  0  0  0
 13 28  1  0  0  0  0
 14 50  1  0  0  0  0
 15 51  1  0  0  0  0
 17 18  1  0  0  0  0
 17 20  1  0  0  0  0
 18 19  1  0  0  0  0
 18 29  1  0  0  0  0
 19 22  1  0  0  0  0
 20 21  1  0  0  0  0
 20 30  1  0  0  0  0
 21 23  1  0  0  0  0
 21 31  1  0  0  0  0
 22 25  1  0  0  0  0
 22 32  1  0  0  0  0
 23 24  1  0  0  0  0
 23 33  1  0  0  0  0
 24 28  1  0  0  0  0
 24 34  1  0  0  0  0
 25 26  1  0  0  0  0
 25 35  1  0  0  0  0
 26 27  1  0  0  0  0
 26 36  1  0  0  0  0
 27 37  1  0  0  0  0
 27 38  1  0  0  0  0
 28 39  1  0  0  0  0
 28 40  1  0  0  0  0
M  END
> <PUBCHEM_COMPOUND_CID>
129891453

> <PUBCHEM_CONFORMER_RMSD>
1.4

> <PUBCHEM_CONFORMER_DIVERSEORDER>
1
40
15
16
38
41
48
4
59
42
47
13
53
19
8
30
20
39
34
26
52
44
36
58
9
29
23
43
32
10
18
45
24
57
17
14
27
25
37
2
12
6
7
21
22
56
49
28
5
3
35
33
50
54
51
46
31
11
55

> <PUBCHEM_MMFF94_PARTIAL_CHARGES>
39
1 1.51
10 -0.68
11 -0.68
12 -0.68
13 -0.55
14 -0.77
15 -0.77
16 -0.7
17 0.56
18 0.28
19 0.56
2 -0.56
20 0.28
21 0.28
22 0.28
23 0.28
24 0.28
25 0.28
26 0.28
27 0.28
28 0.28
3 -0.56
4 -0.68
41 0.4
42 0.4
43 0.4
44 0.4
45 0.4
46 0.4
47 0.4
48 0.4
49 0.4
5 -0.68
50 0.5
51 0.5
6 -0.68
7 -0.68
8 -0.68
9 -0.68

> <PUBCHEM_EFFECTIVE_ROTOR_COUNT>
7.4

> <PUBCHEM_PHARMACOPHORE_FEATURES>
26
1 10 acceptor
1 10 donor
1 11 acceptor
1 11 donor
1 12 acceptor
1 12 donor
1 14 acceptor
1 15 acceptor
1 16 acceptor
1 2 acceptor
1 3 acceptor
1 4 acceptor
1 4 donor
1 5 acceptor
1 5 donor
1 6 acceptor
1 6 donor
1 7 acceptor
1 7 donor
1 8 acceptor
1 8 donor
1 9 acceptor
1 9 donor
4 1 14 15 16 anion
6 2 17 20 21 23 24 rings
6 3 19 22 25 26 27 rings

> <PUBCHEM_HEAVY_ATOM_COUNT>
28

> <PUBCHEM_ATOM_DEF_STEREO_COUNT>
5

> <PUBCHEM_ATOM_UDEF_STEREO_COUNT>
5

> <PUBCHEM_BOND_DEF_STEREO_COUNT>
0

> <PUBCHEM_BOND_UDEF_STEREO_COUNT>
0

> <PUBCHEM_ISOTOPIC_ATOM_COUNT>
0

> <PUBCHEM_COMPONENT_COUNT>
1

> <PUBCHEM_CACTVS_TAUTO_COUNT>
1

> <PUBCHEM_CONFORMER_ID>
07BDFC7D00000001

> <PUBCHEM_MMFF94_ENERGY>
57.2836

> <PUBCHEM_FEATURE_SELFOVERLAP>
132.275

> <PUBCHEM_SHAPE_FINGERPRINT>
1100329 8 18266465295667777561
11265709 11 18412547574601537546
11552529 35 17911237214165507674
11578080 2 17346313830250832193
12107183 9 18270416992608762833
12363563 72 18413112744768474198
12553582 1 18130520698461123311
13004483 165 18123171434409111298
13009979 54 18059308564883524784
13083527 12 18341323445074877260
13140716 1 18270408191324604176
13533116 47 18198061594150310123
13544653 18 18342450422701961194
13911987 19 17685236236502773852
14178342 30 17630342847601507522
15042514 8 18051700940609010792
15534591 1 8934413234809033028
16945 1 18055356000759650449
17349148 13 17988927781617416790
1813 80 18202007607583927182
18186145 218 17240756320216219997
18222031 100 18412824656175260646
20567600 70 18334009519402107746
20600515 1 16845570954372264178
20775530 9 18409730621432045922
21033650 10 15864062183407391109
21452121 199 18341608231112781200
23175994 123 18410573963972306207
23419403 2 17770746136262961728
23559900 14 17822289140864521959
23598288 3 18198359376236654893
25147074 1 18268452194793940832
312423 11 18337123322776628005
345986 75 17917445249577607409
34797466 226 16516525667953932783
44802255 64 15870307586190462204
463206 1 18410854399309156955
484985 159 17176853546429976870
59682541 52 18125135355988029303
613672 6 18338790122634289298
6669772 16 17981613981442918172
70251023 43 18338785802181681847
7471813 234 18412538812810088702
7808743 9 9366474025578020606
9709674 26 18334572494723944591

> <PUBCHEM_SHAPE_MULTIPOLES>
492.04
10.08
3.93
1.48
0.42
1.8
0.04
-10.48
-1.1
4.26
0.49
-0.32
-0.1
-0.93

> <PUBCHEM_SHAPE_SELFOVERLAP>
1012.837

> <PUBCHEM_SHAPE_VOLUME>
281.9

> <PUBCHEM_COORDINATE_TYPE>
2
5
10