129856192
  -OEChem-05072106003D

 40 39  0     1  0  0  0  0  0999 V2000
    2.4590   -1.5702   -0.9692 O   0  0  0  0  0  0  0  0  0  0  0  0
    1.6113   -1.5403    1.6100 O   0  0  0  0  0  0  0  0  0  0  0  0
   -2.3378   -2.5231   -0.8938 O   0  0  0  0  0  0  0  0  0  0  0  0
    2.8355    1.2456   -1.6634 O   0  0  0  0  0  0  0  0  0  0  0  0
   -3.2688   -0.4707    0.5799 O   0  0  0  0  0  0  0  0  0  0  0  0
   -0.3493   -3.0754    0.7531 O   0  0  0  0  0  0  0  0  0  0  0  0
    4.4123    1.7604    0.5832 O   0  0  0  0  0  0  0  0  0  0  0  0
   -2.4110    1.3795   -1.8091 N   0  0  2  0  0  0  0  0  0  0  0  0
   -1.8052    1.1111   -0.5055 C   0  0  1  0  0  0  0  0  0  0  0  0
   -2.2008    2.1447    0.5744 C   0  0  0  0  0  0  0  0  0  0  0  0
    1.5742   -0.5064   -0.5914 C   0  0  1  0  0  0  0  0  0  0  0  0
    0.7649   -0.9386    0.6394 C   0  0  1  0  0  0  0  0  0  0  0  0
   -1.4450   -1.4544   -0.6451 C   0  0  1  0  0  0  0  0  0  0  0  0
    2.4334    0.7545   -0.3789 C   0  0  1  0  0  0  0  0  0  0  0  0
   -2.2735   -0.2927   -0.1240 C   0  0  0  0  0  0  0  0  0  0  0  0
   -0.3464   -1.9315    0.2947 C   0  0  0  0  0  0  0  0  0  0  0  0
   -1.7626    3.5566    0.1641 C   0  0  0  0  0  0  0  0  0  0  0  0
   -1.5930    1.8144    1.9424 C   0  0  0  0  0  0  0  0  0  0  0  0
    3.7029    0.5366    0.4394 C   0  0  0  0  0  0  0  0  0  0  0  0
   -0.7188    1.1166   -0.6146 H   0  0  0  0  0  0  0  0  0  0  0  0
   -3.2930    2.1519    0.6908 H   0  0  0  0  0  0  0  0  0  0  0  0
    0.9237   -0.3290   -1.4521 H   0  0  0  0  0  0  0  0  0  0  0  0
    0.2973   -0.0810    1.1215 H   0  0  0  0  0  0  0  0  0  0  0  0
   -1.0133   -1.2001   -1.6146 H   0  0  0  0  0  0  0  0  0  0  0  0
    1.8340    1.5526    0.0746 H   0  0  0  0  0  0  0  0  0  0  0  0
   -0.6883    3.5942   -0.0466 H   0  0  0  0  0  0  0  0  0  0  0  0
   -1.9733    4.2749    0.9643 H   0  0  0  0  0  0  0  0  0  0  0  0
   -2.2998    3.9037   -0.7238 H   0  0  0  0  0  0  0  0  0  0  0  0
   -0.5005    1.8804    1.9149 H   0  0  0  0  0  0  0  0  0  0  0  0
   -1.8691    0.8174    2.2954 H   0  0  0  0  0  0  0  0  0  0  0  0
   -1.9433    2.5295    2.6954 H   0  0  0  0  0  0  0  0  0  0  0  0
    4.3792   -0.1660   -0.0580 H   0  0  0  0  0  0  0  0  0  0  0  0
    3.4726    0.1662    1.4412 H   0  0  0  0  0  0  0  0  0  0  0  0
   -2.0840    0.6949   -2.4903 H   1  0  0  0  0  0  0  0  0  0  0  0
   -2.0963    2.2830   -2.1589 H   0  0  0  0  0  0  0  0  0  0  0  0
    1.9109   -2.3452   -1.1804 H   0  0  0  0  0  0  0  0  0  0  0  0
    2.0962   -2.2622    1.1748 H   0  0  0  0  0  0  0  0  0  0  0  0
   -2.7363   -2.7860   -0.0463 H   0  0  0  0  0  0  0  0  0  0  0  0
    2.0289    1.4783   -2.1543 H   0  0  0  0  0  0  0  0  0  0  0  0
    5.2080    1.5698    1.1087 H   0  0  0  0  0  0  0  0  0  0  0  0
  1 11  1  0  0  0  0
  1 36  1  0  0  0  0
  2 12  1  0  0  0  0
  2 37  1  0  0  0  0
  3 13  1  0  0  0  0
  3 38  1  0  0  0  0
  4 14  1  0  0  0  0
  4 39  1  0  0  0  0
  5 15  2  0  0  0  0
  6 16  2  0  0  0  0
  7 19  1  0  0  0  0
  7 40  1  0  0  0  0
  8  9  1  0  0  0  0
  8 34  1  0  0  0  0
  8 35  1  0  0  0  0
  9 10  1  0  0  0  0
  9 15  1  0  0  0  0
  9 20  1  0  0  0  0
 10 17  1  0  0  0  0
 10 18  1  0  0  0  0
 10 21  1  0  0  0  0
 11 12  1  0  0  0  0
 11 14  1  0  0  0  0
 11 22  1  0  0  0  0
 12 16  1  0  0  0  0
 12 23  1  0  0  0  0
 13 15  1  0  0  0  0
 13 16  1  0  0  0  0
 13 24  1  0  0  0  0
 14 19  1  0  0  0  0
 14 25  1  0  0  0  0
 17 26  1  0  0  0  0
 17 27  1  0  0  0  0
 17 28  1  0  0  0  0
 18 29  1  0  0  0  0
 18 30  1  0  0  0  0
 18 31  1  0  0  0  0
 19 32  1  0  0  0  0
 19 33  1  0  0  0  0
M  ISO  1  34   2
M  END
> <PUBCHEM_COMPOUND_CID>
129856192

> <PUBCHEM_CONFORMER_RMSD>
1.2

> <PUBCHEM_CONFORMER_DIVERSEORDER>
1
2
91
68
67
20
84
24
27
87
44
96
58
4
41
90
54
35
26
77
69
49
56
42
16
59
51
21
9
82
36
10
66
15
17
47
61
19
29
63
74
50
32
71
95
25
76
5
38
40
12
3
88
37
31
39
75
85
7
52
8
94
89
70
93
72
65
73
46
81
64
22
28
55
33
53
43
48
30
78
6
83
57
11
18
60
13
14
34
92
86
62
45
79
80
23

> <PUBCHEM_MMFF94_PARTIAL_CHARGES>
23
1 -0.68
11 0.28
12 0.34
13 0.4
14 0.28
15 0.45
16 0.45
19 0.28
2 -0.68
3 -0.68
34 0.36
35 0.36
36 0.4
37 0.4
38 0.4
39 0.4
4 -0.68
40 0.4
5 -0.57
6 -0.57
7 -0.68
8 -0.99
9 0.33

> <PUBCHEM_EFFECTIVE_ROTOR_COUNT>
8

> <PUBCHEM_PHARMACOPHORE_FEATURES>
16
1 1 acceptor
1 1 donor
1 13 anion
1 2 acceptor
1 2 donor
1 3 acceptor
1 3 donor
1 4 acceptor
1 4 donor
1 5 acceptor
1 6 acceptor
1 7 acceptor
1 7 donor
1 8 cation
1 8 donor
3 10 17 18 hydrophobe

> <PUBCHEM_HEAVY_ATOM_COUNT>
19

> <PUBCHEM_ATOM_DEF_STEREO_COUNT>
4

> <PUBCHEM_ATOM_UDEF_STEREO_COUNT>
1

> <PUBCHEM_BOND_DEF_STEREO_COUNT>
0

> <PUBCHEM_BOND_UDEF_STEREO_COUNT>
0

> <PUBCHEM_ISOTOPIC_ATOM_COUNT>
1

> <PUBCHEM_COMPONENT_COUNT>
1

> <PUBCHEM_CACTVS_TAUTO_COUNT>
113

> <PUBCHEM_CONFORMER_ID>
07BD72C000000001

> <PUBCHEM_MMFF94_ENERGY>
24.4809

> <PUBCHEM_FEATURE_SELFOVERLAP>
81.252

> <PUBCHEM_SHAPE_FINGERPRINT>
11640471 11 18261386707134918584
12173636 292 18270404871715791309
128993 33 18122084029793093316
13140716 1 17904488745983951144
13693222 7 18262242101321899364
14123250 116 17774732969430023552
14142880 1 18335139774126291349
14386348 128 18194705686196796564
14614273 12 18186795864324143223
14787075 74 17826532242489123667
15775835 57 18261114028119322357
16945 1 18266190610886188086
17134986 127 17908988707879685613
18219364 16 17971760960543893101
18981168 100 18197784305890409177
20510252 161 18411697729042902539
20671657 1 17905608796298447063
21524375 3 18196389025750896923
23402539 116 18124304171455938350
23419403 2 17412158230039999913
23557571 272 18057891427423301918
23559900 14 17773035247048384494
305870 269 18114171996023182738
31174 14 17323257921967079561
350125 39 18266752272428593667
353137 74 18411417323534069673
465052 167 11022977486719442999
526903 126 18342453742337505001
81228 2 18196107731036160322

> <PUBCHEM_SHAPE_MULTIPOLES>
344.94
5.7
3.5
1.43
4.6
0.18
0.04
3.22
-0.25
-1.69
0.4
-0.14
0.29
-0.48

> <PUBCHEM_SHAPE_SELFOVERLAP>
670.814

> <PUBCHEM_SHAPE_VOLUME>
207.9

> <PUBCHEM_COORDINATE_TYPE>
2
5
10