129830854
  -OEChem-05072106003D

 27 27  0     1  0  0  0  0  0999 V2000
   -0.0106   -1.0835   -0.0730 O   0  0  0  0  0  0  0  0  0  0  0  0
   -1.5334    0.5130    1.8930 O   0  0  0  0  0  0  0  0  0  0  0  0
   -0.2789    2.3216   -1.0115 O   0  0  0  0  0  0  0  0  0  0  0  0
   -1.4831   -0.2176   -1.7110 O   0  0  0  0  0  0  0  0  0  0  0  0
    2.1709    1.8585    0.1681 O   0  0  0  0  0  0  0  0  0  0  0  0
   -3.6158   -0.9477   -0.1602 O   0  0  0  0  0  0  0  0  0  0  0  0
    3.3342   -0.8317   -0.7745 O   0  0  0  0  0  0  0  0  0  0  0  0
    2.2728   -1.9344    0.9147 O   0  0  0  0  0  0  0  0  0  0  0  0
   -1.4373    0.8341    0.5060 C   0  0  1  0  0  0  0  0  0  0  0  0
   -0.2456    1.7787    0.3075 C   0  0  1  0  0  0  0  0  0  0  0  0
   -1.2823   -0.4670   -0.3170 C   0  0  2  0  0  0  0  0  0  0  0  0
    1.0712    1.0212    0.5098 C   0  0  1  0  0  0  0  0  0  0  0  0
    1.1051   -0.2400   -0.3465 C   0  0  1  0  0  0  0  0  0  0  0  0
   -2.3372   -1.5042    0.0739 C   0  0  0  0  0  0  0  0  0  0  0  0
    2.2702   -1.1012    0.0208 C   0  0  0  0  0  0  0  0  0  0  0  0
   -2.3599    1.3470    0.2078 H   0  0  0  0  0  0  0  0  0  0  0  0
   -0.2830    2.6228    1.0060 H   0  0  0  0  0  0  0  0  0  0  0  0
    1.1657    0.7613    1.5720 H   0  0  0  0  0  0  0  0  0  0  0  0
    1.1462   -0.0255   -1.4213 H   0  0  0  0  0  0  0  0  0  0  0  0
   -2.2508   -1.8032    1.1240 H   0  0  0  0  0  0  0  0  0  0  0  0
   -2.2386   -2.4130   -0.5315 H   0  0  0  0  0  0  0  0  0  0  0  0
   -1.6662    1.3452    2.3782 H   0  0  0  0  0  0  0  0  0  0  0  0
   -1.1161    2.8069   -1.1070 H   0  0  0  0  0  0  0  0  0  0  0  0
   -1.7428   -1.0470   -2.1453 H   0  0  0  0  0  0  0  0  0  0  0  0
    2.9890    1.3815    0.3875 H   0  0  0  0  0  0  0  0  0  0  0  0
   -4.2720   -1.6208    0.0884 H   0  0  0  0  0  0  0  0  0  0  0  0
    4.1110   -1.3861   -0.5477 H   0  0  0  0  0  0  0  0  0  0  0  0
  1 11  1  0  0  0  0
  1 13  1  0  0  0  0
  2  9  1  0  0  0  0
  2 22  1  0  0  0  0
  3 10  1  0  0  0  0
  3 23  1  0  0  0  0
  4 11  1  0  0  0  0
  4 24  1  0  0  0  0
  5 12  1  0  0  0  0
  5 25  1  0  0  0  0
  6 14  1  0  0  0  0
  6 26  1  0  0  0  0
  7 15  1  0  0  0  0
  7 27  1  0  0  0  0
  8 15  2  0  0  0  0
  9 10  1  0  0  0  0
  9 11  1  0  0  0  0
  9 16  1  0  0  0  0
 10 12  1  0  0  0  0
 10 17  1  0  0  0  0
 11 14  1  0  0  0  0
 12 13  1  0  0  0  0
 12 18  1  0  0  0  0
 13 15  1  0  0  0  0
 13 19  1  0  0  0  0
 14 20  1  0  0  0  0
 14 21  1  0  0  0  0
M  END
> <PUBCHEM_COMPOUND_CID>
129830854

> <PUBCHEM_CONFORMER_RMSD>
0.6

> <PUBCHEM_CONFORMER_DIVERSEORDER>
2
7
9
18
12
10
13
11
15
4
3
17
1
16
8
14
6
5

> <PUBCHEM_MMFF94_PARTIAL_CHARGES>
21
1 -0.56
10 0.28
11 0.56
12 0.28
13 0.34
14 0.28
15 0.66
2 -0.68
22 0.4
23 0.4
24 0.4
25 0.4
26 0.4
27 0.5
3 -0.68
4 -0.68
5 -0.68
6 -0.68
7 -0.65
8 -0.57
9 0.28

> <PUBCHEM_EFFECTIVE_ROTOR_COUNT>
3.2

> <PUBCHEM_PHARMACOPHORE_FEATURES>
15
1 1 acceptor
1 2 acceptor
1 2 donor
1 3 acceptor
1 3 donor
1 4 acceptor
1 4 donor
1 5 acceptor
1 5 donor
1 6 acceptor
1 6 donor
1 7 acceptor
1 8 acceptor
3 7 8 15 anion
6 1 9 10 11 12 13 rings

> <PUBCHEM_HEAVY_ATOM_COUNT>
15

> <PUBCHEM_ATOM_DEF_STEREO_COUNT>
4

> <PUBCHEM_ATOM_UDEF_STEREO_COUNT>
1

> <PUBCHEM_BOND_DEF_STEREO_COUNT>
0

> <PUBCHEM_BOND_UDEF_STEREO_COUNT>
0

> <PUBCHEM_ISOTOPIC_ATOM_COUNT>
0

> <PUBCHEM_COMPONENT_COUNT>
1

> <PUBCHEM_CACTVS_TAUTO_COUNT>
1

> <PUBCHEM_CONFORMER_ID>
07BD0FC600000002

> <PUBCHEM_MMFF94_ENERGY>
36.7579

> <PUBCHEM_FEATURE_SELFOVERLAP>
76.258

> <PUBCHEM_SHAPE_FINGERPRINT>
12423570 1 18052843358780751808
13024252 1 17096666291615665865
14817 1 17841454547469982589
15001771 113 18342461430291554320
15076042 46 17632308860322985065
161256 15 18412260662122481100
16945 1 18056212271145917561
20645477 70 18270113651690524799
20653091 64 18413390955801810858
20871998 184 17845372154691562374
22112679 90 17916606304841323193
23419403 2 16475640207056257977
23552423 10 18336830891354175880
23559900 14 17695055601852943594
241688 4 18410575067504516944
2748010 2 18339068363178171309
369184 2 18191024491376031898
5084963 1 18202563947366187690
528862 383 18196930187293060007
63268167 104 18269559493022961537
7364860 26 17987518272366952992

> <PUBCHEM_SHAPE_MULTIPOLES>
261.74
4.05
2.12
1.13
0.11
0.67
0.05
-2.19
-0.14
0.52
0.02
-0.34
0.13
-0.22

> <PUBCHEM_SHAPE_SELFOVERLAP>
537.309

> <PUBCHEM_SHAPE_VOLUME>
147.1

> <PUBCHEM_COORDINATE_TYPE>
2
5
10