129820517
  -OEChem-05072106003D

 30 29  0     1  0  0  0  0  0999 V2000
   -1.1118   -1.8768    0.0082 O   0  0  0  0  0  0  0  0  0  0  0  0
    0.2559    0.9901    1.8126 O   0  0  0  0  0  0  0  0  0  0  0  0
    1.3750   -1.3470   -0.7894 O   0  0  0  0  0  0  0  0  0  0  0  0
    3.5494    0.3890   -0.7148 O   0  0  0  0  0  0  0  0  0  0  0  0
   -1.7601    0.2734   -1.5214 O   0  0  0  0  0  0  0  0  0  0  0  0
   -3.3011    2.2679   -0.6559 O   0  0  0  0  0  0  0  0  0  0  0  0
    0.2666   -0.2162    1.0548 C   0  0  2  0  0  0  0  0  0  0  0  0
    1.2794   -0.1013   -0.0996 C   0  0  1  0  0  0  0  0  0  0  0  0
   -1.1618   -0.6059    0.6447 C   0  0  1  0  0  0  0  0  0  0  0  0
    2.6755    0.2675    0.4030 C   0  0  0  0  0  0  0  0  0  0  0  0
   -1.8645    0.3699   -0.2977 C   0  0  0  0  0  0  0  0  0  0  0  0
   -2.7253    1.4446    0.3383 C   0  0  0  0  0  0  0  0  0  0  0  0
   -2.3484   -2.5666    0.1248 C   0  0  0  0  0  0  0  0  0  0  0  0
    4.8712    0.7114   -0.3076 C   0  0  0  0  0  0  0  0  0  0  0  0
    0.6323   -1.0100    1.7208 H   0  0  0  0  0  0  0  0  0  0  0  0
    0.9518    0.6551   -0.8222 H   0  0  0  0  0  0  0  0  0  0  0  0
   -1.7697   -0.6737    1.5575 H   0  0  0  0  0  0  0  0  0  0  0  0
    2.6556    1.2175    0.9482 H   0  0  0  0  0  0  0  0  0  0  0  0
    3.0567   -0.5210    1.0632 H   0  0  0  0  0  0  0  0  0  0  0  0
   -0.3433    0.8589    2.5670 H   0  0  0  0  0  0  0  0  0  0  0  0
    2.0252   -1.2359   -1.5040 H   0  0  0  0  0  0  0  0  0  0  0  0
   -3.5259    0.9666    0.9094 H   0  0  0  0  0  0  0  0  0  0  0  0
   -2.1072    2.0635    0.9930 H   0  0  0  0  0  0  0  0  0  0  0  0
   -2.2552   -3.5218   -0.3995 H   1  0  0  0  0  0  0  0  0  0  0  0
   -3.1655   -2.0022   -0.3344 H   0  0  0  0  0  0  0  0  0  0  0  0
   -2.5759   -2.7739    1.1751 H   0  0  0  0  0  0  0  0  0  0  0  0
    5.4961    0.7940   -1.2009 H   1  0  0  0  0  0  0  0  0  0  0  0
    5.2797   -0.0773    0.3316 H   0  0  0  0  0  0  0  0  0  0  0  0
    4.8879    1.6704    0.2193 H   0  0  0  0  0  0  0  0  0  0  0  0
   -3.8494    2.9286   -0.1994 H   0  0  0  0  0  0  0  0  0  0  0  0
  1  9  1  0  0  0  0
  1 13  1  0  0  0  0
  2  7  1  0  0  0  0
  2 20  1  0  0  0  0
  3  8  1  0  0  0  0
  3 21  1  0  0  0  0
  4 10  1  0  0  0  0
  4 14  1  0  0  0  0
  5 11  2  0  0  0  0
  6 12  1  0  0  0  0
  6 30  1  0  0  0  0
  7  8  1  0  0  0  0
  7  9  1  0  0  0  0
  7 15  1  0  0  0  0
  8 10  1  0  0  0  0
  8 16  1  0  0  0  0
  9 11  1  0  0  0  0
  9 17  1  0  0  0  0
 10 18  1  0  0  0  0
 10 19  1  0  0  0  0
 11 12  1  0  0  0  0
 12 22  1  0  0  0  0
 12 23  1  0  0  0  0
 13 24  1  0  0  0  0
 13 25  1  0  0  0  0
 13 26  1  0  0  0  0
 14 27  1  0  0  0  0
 14 28  1  0  0  0  0
 14 29  1  0  0  0  0
M  ISO  2  24   2  27   2
M  END
> <PUBCHEM_COMPOUND_CID>
129820517

> <PUBCHEM_CONFORMER_RMSD>
0.8

> <PUBCHEM_CONFORMER_DIVERSEORDER>
1
54
95
14
57
106
71
68
41
16
27
42
19
55
32
43
70
4
10
61
87
97
25
88
52
111
112
63
44
74
94
59
28
45
107
18
7
101
3
39
24
104
90
86
73
2
36
83
46
23
99
56
76
65
81
77
78
62
98
85
69
9
38
109
33
105
30
102
50
13
92
58
51
31
21
66
64
26
20
75
110
8
6
91
49
5
47
60
34
82
22
79
80
53
40
100
96
37
17
93
15
108
12
103
11
89
29
72
48
67
84
35

> <PUBCHEM_MMFF94_PARTIAL_CHARGES>
17
1 -0.56
10 0.28
11 0.45
12 0.34
13 0.28
14 0.28
2 -0.68
20 0.4
21 0.4
3 -0.68
30 0.4
4 -0.56
5 -0.57
6 -0.68
7 0.28
8 0.28
9 0.34

> <PUBCHEM_EFFECTIVE_ROTOR_COUNT>
7

> <PUBCHEM_PHARMACOPHORE_FEATURES>
9
1 1 acceptor
1 2 acceptor
1 2 donor
1 3 acceptor
1 3 donor
1 4 acceptor
1 5 acceptor
1 6 acceptor
1 6 donor

> <PUBCHEM_HEAVY_ATOM_COUNT>
14

> <PUBCHEM_ATOM_DEF_STEREO_COUNT>
3

> <PUBCHEM_ATOM_UDEF_STEREO_COUNT>
0

> <PUBCHEM_BOND_DEF_STEREO_COUNT>
0

> <PUBCHEM_BOND_UDEF_STEREO_COUNT>
0

> <PUBCHEM_ISOTOPIC_ATOM_COUNT>
2

> <PUBCHEM_COMPONENT_COUNT>
1

> <PUBCHEM_CACTVS_TAUTO_COUNT>
4

> <PUBCHEM_CONFORMER_ID>
07BCE76500000001

> <PUBCHEM_MMFF94_ENERGY>
31.8429

> <PUBCHEM_FEATURE_SELFOVERLAP>
45.702

> <PUBCHEM_SHAPE_FINGERPRINT>
12138202 97 18413107242867680807
12491281 212 17967812751885550424
12932764 1 18334296513231900082
13024252 1 14779544625516262235
15775835 57 17603865568043487540
16945 1 18411129277257448107
1741750 31 18410573946560198632
18186145 218 18126011459694569669
18534176 82 18413105091078490047
20112054 13 14707200007356294174
20645477 56 18409173211912473032
20645477 70 16988292980270408062
20653085 51 18113912532669136696
20711985 344 18263630930969464699
20820808 20 18124311597770300009
20871999 31 18272081704299512277
21061003 4 17345766337509707426
21339142 149 17531249521151669618
21339142 51 18202288039041704088
21501502 16 18334848403307501882
21524375 3 18042396933529052113
21930827 45 18339909477047175403
22959321 105 18341619278047994240
23380061 127 18335420222563100390
23402539 116 17969220208205105995
23526113 38 17846217713472091191
23557571 272 18339091479082373172
23559900 14 18131071511939207202
25 1 18058449811699809081
2748010 2 17773863384554675440

> <PUBCHEM_SHAPE_MULTIPOLES>
252.9
6.41
2.05
1.15
7.96
0.58
-0.18
-2.44
1.53
-2.82
0.16
-0.11
-0.23
0.34

> <PUBCHEM_SHAPE_SELFOVERLAP>
478.399

> <PUBCHEM_SHAPE_VOLUME>
156.3

> <PUBCHEM_COORDINATE_TYPE>
2
5
10