129829790
  -OEChem-05072106003D

 45 45  0     1  0  0  0  0  0999 V2000
    0.7275   -0.4425   -0.1465 O   0  0  0  0  0  0  0  0  0  0  0  0
    2.1959    1.0959   -2.1954 O   0  0  0  0  0  0  0  0  0  0  0  0
    4.0822    0.4583    0.8444 O   0  0  0  0  0  0  0  0  0  0  0  0
    2.9068   -1.7939   -1.7285 O   0  0  0  0  0  0  0  0  0  0  0  0
    0.5382    3.1096   -0.7068 O   0  0  0  0  0  0  0  0  0  0  0  0
    2.5200   -2.5814    2.2145 O   0  0  0  0  0  0  0  0  0  0  0  0
   -2.7333    0.9873    2.0313 O   0  0  0  0  0  0  0  0  0  0  0  0
   -1.3321    3.0037    1.1631 O   0  0  0  0  0  0  0  0  0  0  0  0
   -3.4932    1.0662   -0.7257 O   0  0  0  0  0  0  0  0  0  0  0  0
   -2.5181   -2.1839    0.6640 O   0  0  0  0  0  0  0  0  0  0  0  0
   -3.3386   -2.1998   -2.0373 O   0  0  0  0  0  0  0  0  0  0  0  0
    1.1697    0.9090    0.0109 C   0  0  1  0  0  0  0  0  0  0  0  0
    2.4535    1.1532   -0.7939 C   0  0  1  0  0  0  0  0  0  0  0  0
    3.5422    0.1363   -0.4354 C   0  0  2  0  0  0  0  0  0  0  0  0
    3.0151   -1.3022   -0.3896 C   0  0  1  0  0  0  0  0  0  0  0  0
    1.6498   -1.4418    0.3033 C   0  0  1  0  0  0  0  0  0  0  0  0
    0.0249    1.8136   -0.4352 C   0  0  1  0  0  0  0  0  0  0  0  0
    1.7327   -1.4703    1.8282 C   0  0  0  0  0  0  0  0  0  0  0  0
   -1.0840    1.9324    0.6062 C   0  0  0  0  0  0  0  0  0  0  0  0
   -1.8384    0.6594    0.9767 C   0  0  2  0  0  0  0  0  0  0  0  0
   -2.6032    0.0711   -0.2206 C   0  0  1  0  0  0  0  0  0  0  0  0
   -3.4072   -1.1862    0.1622 C   0  0  1  0  0  0  0  0  0  0  0  0
   -4.2103   -1.7940   -0.9897 C   0  0  0  0  0  0  0  0  0  0  0  0
    1.3704    1.1009    1.0717 H   1  0  0  0  0  0  0  0  0  0  0  0
    2.8301    2.1598   -0.5748 H   0  0  0  0  0  0  0  0  0  0  0  0
    4.3576    0.2057   -1.1660 H   0  0  0  0  0  0  0  0  0  0  0  0
    3.7525   -1.9459    0.1036 H   0  0  0  0  0  0  0  0  0  0  0  0
    1.2138   -2.3988   -0.0114 H   0  0  0  0  0  0  0  0  0  0  0  0
   -0.4266    1.4553   -1.3654 H   0  0  0  0  0  0  0  0  0  0  0  0
    0.7315   -1.5749    2.2598 H   0  0  0  0  0  0  0  0  0  0  0  0
    2.1760   -0.5636    2.2466 H   0  0  0  0  0  0  0  0  0  0  0  0
   -1.1317   -0.0592    1.3954 H   0  0  0  0  0  0  0  0  0  0  0  0
    3.0268    1.3018   -2.6564 H   0  0  0  0  0  0  0  0  0  0  0  0
    4.8093   -0.1621    1.0227 H   0  0  0  0  0  0  0  0  0  0  0  0
   -1.9002   -0.1890   -1.0192 H   0  0  0  0  0  0  0  0  0  0  0  0
    2.6547   -2.7317   -1.6787 H   0  0  0  0  0  0  0  0  0  0  0  0
    0.9474    3.4465    0.1089 H   0  0  0  0  0  0  0  0  0  0  0  0
   -4.1162   -0.9357    0.9605 H   0  0  0  0  0  0  0  0  0  0  0  0
    2.5465   -2.5902    3.1864 H   0  0  0  0  0  0  0  0  0  0  0  0
   -3.4291    1.5586    1.6633 H   0  0  0  0  0  0  0  0  0  0  0  0
   -4.7483   -2.6844   -0.6476 H   0  0  0  0  0  0  0  0  0  0  0  0
   -4.9334   -1.0772   -1.3907 H   0  0  0  0  0  0  0  0  0  0  0  0
   -2.9578    1.7732   -1.1233 H   0  0  0  0  0  0  0  0  0  0  0  0
   -3.0562   -2.9430    0.9465 H   0  0  0  0  0  0  0  0  0  0  0  0
   -3.8937   -2.5811   -2.7388 H   0  0  0  0  0  0  0  0  0  0  0  0
  1 12  1  0  0  0  0
  1 16  1  0  0  0  0
  2 13  1  0  0  0  0
  2 33  1  0  0  0  0
  3 14  1  0  0  0  0
  3 34  1  0  0  0  0
  4 15  1  0  0  0  0
  4 36  1  0  0  0  0
  5 17  1  0  0  0  0
  5 37  1  0  0  0  0
  6 18  1  0  0  0  0
  6 39  1  0  0  0  0
  7 20  1  0  0  0  0
  7 40  1  0  0  0  0
  8 19  2  0  0  0  0
  9 21  1  0  0  0  0
  9 43  1  0  0  0  0
 10 22  1  0  0  0  0
 10 44  1  0  0  0  0
 11 23  1  0  0  0  0
 11 45  1  0  0  0  0
 12 13  1  0  0  0  0
 12 17  1  0  0  0  0
 12 24  1  0  0  0  0
 13 14  1  0  0  0  0
 13 25  1  0  0  0  0
 14 15  1  0  0  0  0
 14 26  1  0  0  0  0
 15 16  1  0  0  0  0
 15 27  1  0  0  0  0
 16 18  1  0  0  0  0
 16 28  1  0  0  0  0
 17 19  1  0  0  0  0
 17 29  1  0  0  0  0
 18 30  1  0  0  0  0
 18 31  1  0  0  0  0
 19 20  1  0  0  0  0
 20 21  1  0  0  0  0
 20 32  1  0  0  0  0
 21 22  1  0  0  0  0
 21 35  1  0  0  0  0
 22 23  1  0  0  0  0
 22 38  1  0  0  0  0
 23 41  1  0  0  0  0
 23 42  1  0  0  0  0
M  ISO  1  24   2
M  END
> <PUBCHEM_COMPOUND_CID>
129829790

> <PUBCHEM_CONFORMER_RMSD>
1

> <PUBCHEM_CONFORMER_DIVERSEORDER>
1
99
122
164
41
45
102
147
211
8
220
175
221
169
149
105
92
136
170
232
64
113
216
112
96
144
100
166
177
230
219
51
182
188
2
120
146
30
75
71
131
108
23
236
35
200
13
235
62
40
68
31
132
172
89
126
79
21
159
194
55
26
156
217
209
180
224
16
231
74
179
42
161
72
82
142
115
103
87
15
98
193
57
215
121
14
203
130
52
59
43
196
63
174
233
139
129
83
178
204
86
124
223
58
202
9
127
53
48
189
11
199
22
56
155
93
158
222
229
228
148
97
162
201
116
214
237
111
3
192
47
69
163
226
213
168
150
134
138
66
197
50
141
107
190
173
128
207
29
140
206
181
137
78
54
151
91
227
32
218
17
27
208
37
153
5
225
12
33
81
187
24
95
76
39
171
145
185
212
38
77
234
198
80
94
133
60
85
205
34
18
176
73
46
49
157
90
67
152
114
165
123
28
125
167
110
88
61
65
195
118
84
186
104
143
154
106
160
109
135
191
19
20
10
44
25
119
183
101
36
210
4
184
7
117
70
6

> <PUBCHEM_MMFF94_PARTIAL_CHARGES>
32
1 -0.56
10 -0.68
11 -0.68
12 0.28
13 0.28
14 0.28
15 0.28
16 0.28
17 0.34
18 0.28
19 0.45
2 -0.68
20 0.34
21 0.28
22 0.28
23 0.28
3 -0.68
33 0.4
34 0.4
36 0.4
37 0.4
39 0.4
4 -0.68
40 0.4
43 0.4
44 0.4
45 0.4
5 -0.68
6 -0.68
7 -0.68
8 -0.57
9 -0.68

> <PUBCHEM_EFFECTIVE_ROTOR_COUNT>
8.2

> <PUBCHEM_PHARMACOPHORE_FEATURES>
21
1 1 acceptor
1 10 acceptor
1 10 donor
1 11 acceptor
1 11 donor
1 2 acceptor
1 2 donor
1 3 acceptor
1 3 donor
1 4 acceptor
1 4 donor
1 5 acceptor
1 5 donor
1 6 acceptor
1 6 donor
1 7 acceptor
1 7 donor
1 8 acceptor
1 9 acceptor
1 9 donor
6 1 12 13 14 15 16 rings

> <PUBCHEM_HEAVY_ATOM_COUNT>
23

> <PUBCHEM_ATOM_DEF_STEREO_COUNT>
8

> <PUBCHEM_ATOM_UDEF_STEREO_COUNT>
1

> <PUBCHEM_BOND_DEF_STEREO_COUNT>
0

> <PUBCHEM_BOND_UDEF_STEREO_COUNT>
0

> <PUBCHEM_ISOTOPIC_ATOM_COUNT>
1

> <PUBCHEM_COMPONENT_COUNT>
1

> <PUBCHEM_CACTVS_TAUTO_COUNT>
12

> <PUBCHEM_CONFORMER_ID>
07BD0B9E00000001

> <PUBCHEM_MMFF94_ENERGY>
52.9943

> <PUBCHEM_FEATURE_SELFOVERLAP>
106.637

> <PUBCHEM_SHAPE_FINGERPRINT>
10366900 7 15626220204405249455
11578080 2 18268124566120266625
12403259 327 15841003152451086003
12553582 1 18267041581451974009
12596599 1 18270690761517819026
12788726 201 18269834229649958041
13083527 12 18116968097163395368
13224815 77 18409456881543352736
13583140 156 15266768906651014942
14081887 123 18272076189271269784
14289901 80 16773506698950570056
14787075 74 18267580402585347944
15183329 4 18201141253584672967
15375462 189 18335147505140653809
16752209 62 18124314905053678681
16945 1 18269577029580497020
17349148 13 18187079572747170866
19026451 147 17983850370217463623
20291156 8 18272934968282707071
20442098 301 18269283361006607592
20645477 70 18122901190935306431
21452121 199 18270384114070044177
21452121 99 16807590623393800386
21634736 98 18337125504989344734
22112679 90 18271823323298622769
23402539 116 18408038520550252510
23419403 2 17403393863777794337
23557571 272 18343016688043074554
23559900 14 17988076686787495328
238 59 17899981822183723175
339767 52 18130493236888807495
34934 24 18335702698003693897
5161694 15 15357694154459738419

> <PUBCHEM_SHAPE_MULTIPOLES>
408.77
7.1
3.09
1.8
2.31
0.66
-0.12
-3.6
1.44
0.62
-0.28
-0.24
-0.66
-1.81

> <PUBCHEM_SHAPE_SELFOVERLAP>
823.239

> <PUBCHEM_SHAPE_VOLUME>
235.8

> <PUBCHEM_COORDINATE_TYPE>
2
5
10