129887467
  -OEChem-05072106003D

 31 33  0     1  0  0  0  0  0999 V2000
   -0.7451    2.4224    0.3481 P   0  0  0  0  0  0  0  0  0  0  0  0
   -2.5661   -1.2859   -0.3605 P   0  0  0  0  0  0  0  0  0  0  0  0
   -0.9271    0.9635    0.9829 O   0  0  0  0  0  0  0  0  0  0  0  0
   -2.1981    2.1384   -0.2733 O   0  0  0  0  0  0  0  0  0  0  0  0
   -1.7163   -0.1447   -1.0960 O   0  0  0  0  0  0  0  0  0  0  0  0
   -3.1318   -0.0562    0.5030 O   0  0  0  0  0  0  0  0  0  0  0  0
    0.3033    2.2343   -0.8645 O   0  0  0  0  0  0  0  0  0  0  0  0
   -1.5171   -2.0556    0.5945 O   0  0  0  0  0  0  0  0  0  0  0  0
    3.5165    0.9817    0.3788 O   0  0  0  0  0  0  0  0  0  0  0  0
    2.7639   -0.2595   -1.9850 O   0  0  0  0  0  0  0  0  0  0  0  0
   -0.6083    3.5765    1.2881 O   0  0  0  0  0  0  0  0  0  0  0  0
   -3.5370   -2.0669   -1.1854 O   0  0  0  0  0  0  0  0  0  0  0  0
    3.2345   -1.7345    0.6044 O   0  0  0  0  0  0  0  0  0  0  0  0
    0.8685   -1.8223    1.9102 O   0  0  0  0  0  0  0  0  0  0  0  0
   -2.0033    0.7307    0.0308 C   0  0  0  0  0  0  0  0  0  0  0  0
    2.1330    0.8789    0.0467 C   0  0  2  0  0  0  0  0  0  0  0  0
    1.8783   -0.3402   -0.8652 C   0  0  2  0  0  0  0  0  0  0  0  0
    1.6970    2.2067   -0.5827 C   0  0  0  0  0  0  0  0  0  0  0  0
    2.0587   -1.7103   -0.1852 C   0  0  2  0  0  0  0  0  0  0  0  0
   -0.3591   -2.6267    0.0136 C   0  0  0  0  0  0  0  0  0  0  0  0
    0.8556   -2.0303    0.6964 C   0  0  0  0  0  0  0  0  0  0  0  0
    1.5858    0.7370    0.9835 H   0  0  0  0  0  0  0  0  0  0  0  0
    0.8647   -0.2786   -1.2717 H   0  0  0  0  0  0  0  0  0  0  0  0
    1.9476    3.0470    0.0753 H   0  0  0  0  0  0  0  0  0  0  0  0
    2.2371    2.3835   -1.5192 H   0  0  0  0  0  0  0  0  0  0  0  0
    2.1639   -2.5090   -0.9271 H   0  0  0  0  0  0  0  0  0  0  0  0
   -0.3260   -2.4354   -1.0628 H   0  0  0  0  0  0  0  0  0  0  0  0
   -0.3631   -3.7071    0.1808 H   0  0  0  0  0  0  0  0  0  0  0  0
    3.6163    1.7225    1.0008 H   0  0  0  0  0  0  0  0  0  0  0  0
    2.5423   -0.9895   -2.5879 H   0  0  0  0  0  0  0  0  0  0  0  0
    3.1483   -1.0707    1.3089 H   0  0  0  0  0  0  0  0  0  0  0  0
  1  3  1  0  0  0  0
  1  4  1  0  0  0  0
  1  7  1  0  0  0  0
  1 11  2  0  0  0  0
  2  5  1  0  0  0  0
  2  6  1  0  0  0  0
  2  8  1  0  0  0  0
  2 12  2  0  0  0  0
  3 15  1  0  0  0  0
  4 15  1  0  0  0  0
  5 15  1  0  0  0  0
  6 15  1  0  0  0  0
  7 18  1  0  0  0  0
  8 20  1  0  0  0  0
  9 16  1  0  0  0  0
  9 29  1  0  0  0  0
 10 17  1  0  0  0  0
 10 30  1  0  0  0  0
 13 19  1  0  0  0  0
 13 31  1  0  0  0  0
 14 21  2  0  0  0  0
 16 17  1  0  0  0  0
 16 18  1  0  0  0  0
 16 22  1  0  0  0  0
 17 19  1  0  0  0  0
 17 23  1  0  0  0  0
 18 24  1  0  0  0  0
 18 25  1  0  0  0  0
 19 21  1  0  0  0  0
 19 26  1  0  0  0  0
 20 21  1  0  0  0  0
 20 27  1  0  0  0  0
 20 28  1  0  0  0  0
M  END
> <PUBCHEM_COMPOUND_CID>
129887467

> <PUBCHEM_CONFORMER_RMSD>
0.6

> <PUBCHEM_CONFORMER_DIVERSEORDER>
1
6
4
5
2
3

> <PUBCHEM_MMFF94_PARTIAL_CHARGES>
24
1 1.51
10 -0.68
11 -0.7
12 -0.7
13 -0.68
14 -0.57
15 1.03
16 0.28
17 0.28
18 0.28
19 0.34
2 1.51
20 0.34
21 0.45
29 0.4
3 -0.53
30 0.4
31 0.4
4 -0.53
5 -0.53
6 -0.53
7 -0.55
8 -0.55
9 -0.68

> <PUBCHEM_EFFECTIVE_ROTOR_COUNT>
2.2

> <PUBCHEM_PHARMACOPHORE_FEATURES>
11
1 10 acceptor
1 10 donor
1 11 acceptor
1 12 acceptor
1 13 acceptor
1 13 donor
1 14 acceptor
1 9 acceptor
1 9 donor
4 1 3 4 15 rings
4 2 5 6 15 rings

> <PUBCHEM_HEAVY_ATOM_COUNT>
21

> <PUBCHEM_ATOM_DEF_STEREO_COUNT>
3

> <PUBCHEM_ATOM_UDEF_STEREO_COUNT>
0

> <PUBCHEM_BOND_DEF_STEREO_COUNT>
0

> <PUBCHEM_BOND_UDEF_STEREO_COUNT>
0

> <PUBCHEM_ISOTOPIC_ATOM_COUNT>
0

> <PUBCHEM_COMPONENT_COUNT>
1

> <PUBCHEM_CACTVS_TAUTO_COUNT>
5

> <PUBCHEM_CONFORMER_ID>
07BDECEB00000001

> <PUBCHEM_MMFF94_ENERGY>
61.4032

> <PUBCHEM_FEATURE_SELFOVERLAP>
56.018

> <PUBCHEM_SHAPE_FINGERPRINT>
10967382 1 18193558002199679463
11321824 6 17542490648602707477
12156800 1 13779385740019463557
12553582 1 18338807809097896717
12596599 1 17988659505249195415
13140716 1 18411140195217217555
13544592 271 17834957846999547842
14081887 123 18271229552749562816
14178342 30 18338515214699393864
1420 336 18337958882968302334
14251711 518 18337954484995637799
14251745 187 17837488918276561624
16945 1 18262245550196397335
17492 54 17975411635405725549
20905425 154 18340761632622956390
21634736 98 18264224534225446246
22802520 49 18128278751592844598
2334 1 18409731772155850407
23419403 2 16242566848912708987
23557571 272 17846492651487835674
238 59 17332227101918232551
2748010 2 18336548205175543340
2803657 2 18118390753039499047
2897 32 18408608041202334509
34934 24 18343580759236414445
353137 74 18408600387681415371
5262128 65 18057907894021914678
57483677 51 17183624836674352120
7832392 63 18050284765205995274
90525 40 17834122939595494397

> <PUBCHEM_SHAPE_MULTIPOLES>
369.44
4.74
3.75
1.26
0.01
1.47
-0.04
-1.39
-0.97
-0.5
0.85
0.31
-0.16
-0.74

> <PUBCHEM_SHAPE_SELFOVERLAP>
750.298

> <PUBCHEM_SHAPE_VOLUME>
213.5

> <PUBCHEM_COORDINATE_TYPE>
2
5
10