129856216
  -OEChem-05072106003D

 44 44  0     1  0  0  0  0  0999 V2000
    1.0554   -1.3066   -1.2770 O   0  0  0  0  0  0  0  0  0  0  0  0
    3.5378    1.3520   -1.6001 O   0  0  0  0  0  0  0  0  0  0  0  0
    4.3569   -0.6609    0.0665 O   0  0  0  0  0  0  0  0  0  0  0  0
   -0.3087    2.8255   -1.3817 O   0  0  0  0  0  0  0  0  0  0  0  0
    2.0249    1.9353    0.5888 O   0  0  0  0  0  0  0  0  0  0  0  0
   -1.4917    2.7132    0.9737 O   0  0  0  0  0  0  0  0  0  0  0  0
    3.6363   -2.8872    1.6397 O   0  0  0  0  0  0  0  0  0  0  0  0
   -0.1546    0.9612    2.8622 N   0  0  2  0  0  0  0  0  0  0  0  0
    2.3663   -0.7224   -1.2442 C   0  0  1  0  0  0  0  0  0  0  0  0
    2.2402    0.7804   -1.5185 C   0  0  1  0  0  0  0  0  0  0  0  0
    2.9956   -1.1079    0.1102 C   0  0  1  0  0  0  0  0  0  0  0  0
   -0.0389    1.6708   -0.6156 C   0  0  1  0  0  0  0  0  0  0  0  0
   -0.7548    0.5009    1.6105 C   0  0  2  0  0  0  0  0  0  0  0  0
    1.4620    1.5056   -0.4196 C   0  0  0  0  0  0  0  0  0  0  0  0
   -0.8258    1.7162    0.6863 C   0  0  0  0  0  0  0  0  0  0  0  0
   -2.1372   -0.1010    1.9052 C   0  0  0  0  0  0  0  0  0  0  0  0
    3.0006   -2.6091    0.3999 C   0  0  0  0  0  0  0  0  0  0  0  0
   -2.8428   -0.6173    0.6730 C   0  0  0  0  0  0  0  0  0  0  0  0
   -3.6755    0.2282   -0.0599 C   0  0  0  0  0  0  0  0  0  0  0  0
   -2.6613   -1.9398    0.2686 C   0  0  0  0  0  0  0  0  0  0  0  0
   -4.3269   -0.2488   -1.1974 C   0  0  0  0  0  0  0  0  0  0  0  0
   -3.3126   -2.4168   -0.8688 C   0  0  0  0  0  0  0  0  0  0  0  0
   -4.1455   -1.5714   -1.6018 C   0  0  0  0  0  0  0  0  0  0  0  0
    2.9617   -1.1767   -2.0467 H   0  0  0  0  0  0  0  0  0  0  0  0
    1.7362    0.9640   -2.4730 H   0  0  0  0  0  0  0  0  0  0  0  0
    2.5022   -0.5976    0.9437 H   0  0  0  0  0  0  0  0  0  0  0  0
   -0.4305    0.8092   -1.1663 H   0  0  0  0  0  0  0  0  0  0  0  0
   -0.1101   -0.2606    1.1590 H   0  0  0  0  0  0  0  0  0  0  0  0
   -2.7838    0.6429    2.3915 H   0  0  0  0  0  0  0  0  0  0  0  0
   -2.0426   -0.9226    2.6284 H   0  0  0  0  0  0  0  0  0  0  0  0
    1.9808   -3.0034    0.4453 H   0  0  0  0  0  0  0  0  0  0  0  0
    3.5546   -3.1443   -0.3787 H   0  0  0  0  0  0  0  0  0  0  0  0
    0.6856   -1.1403   -2.1609 H   0  0  0  0  0  0  0  0  0  0  0  0
    0.8011    1.2711    2.6887 H   1  0  0  0  0  0  0  0  0  0  0  0
   -0.0837    0.1813    3.5149 H   0  0  0  0  0  0  0  0  0  0  0  0
    3.9931    1.1985   -0.7551 H   0  0  0  0  0  0  0  0  0  0  0  0
    4.7656   -0.8932    0.9179 H   0  0  0  0  0  0  0  0  0  0  0  0
   -0.1113    2.6161   -2.3106 H   0  0  0  0  0  0  0  0  0  0  0  0
   -3.8320    1.2589    0.2458 H   0  0  0  0  0  0  0  0  0  0  0  0
   -2.0124   -2.6070    0.8297 H   0  0  0  0  0  0  0  0  0  0  0  0
    3.6118   -3.8513    1.7639 H   0  0  0  0  0  0  0  0  0  0  0  0
   -4.9763    0.4091   -1.7675 H   0  0  0  0  0  0  0  0  0  0  0  0
   -3.1705   -3.4463   -1.1844 H   0  0  0  0  0  0  0  0  0  0  0  0
   -4.6526   -1.9429   -2.4875 H   0  0  0  0  0  0  0  0  0  0  0  0
  1  9  1  0  0  0  0
  1 33  1  0  0  0  0
  2 10  1  0  0  0  0
  2 36  1  0  0  0  0
  3 11  1  0  0  0  0
  3 37  1  0  0  0  0
  4 12  1  0  0  0  0
  4 38  1  0  0  0  0
  5 14  2  0  0  0  0
  6 15  2  0  0  0  0
  7 17  1  0  0  0  0
  7 41  1  0  0  0  0
  8 13  1  0  0  0  0
  8 34  1  0  0  0  0
  8 35  1  0  0  0  0
  9 10  1  0  0  0  0
  9 11  1  0  0  0  0
  9 24  1  0  0  0  0
 10 14  1  0  0  0  0
 10 25  1  0  0  0  0
 11 17  1  0  0  0  0
 11 26  1  0  0  0  0
 12 14  1  0  0  0  0
 12 15  1  0  0  0  0
 12 27  1  0  0  0  0
 13 15  1  0  0  0  0
 13 16  1  0  0  0  0
 13 28  1  0  0  0  0
 16 18  1  0  0  0  0
 16 29  1  0  0  0  0
 16 30  1  0  0  0  0
 17 31  1  0  0  0  0
 17 32  1  0  0  0  0
 18 19  2  0  0  0  0
 18 20  1  0  0  0  0
 19 21  1  0  0  0  0
 19 39  1  0  0  0  0
 20 22  2  0  0  0  0
 20 40  1  0  0  0  0
 21 23  2  0  0  0  0
 21 42  1  0  0  0  0
 22 23  1  0  0  0  0
 22 43  1  0  0  0  0
 23 44  1  0  0  0  0
M  ISO  1  34   2
M  END
> <PUBCHEM_COMPOUND_CID>
129856216

> <PUBCHEM_CONFORMER_RMSD>
1.4

> <PUBCHEM_CONFORMER_DIVERSEORDER>
1
65
5
50
27
63
43
51
8
17
21
56
46
9
14
57
33
41
82
22
49
26
76
72
6
45
42
66
71
44
62
58
77
59
18
10
35
7
37
30
23
78
31
24
34
4
55
60
73
15
54
12
61
64
11
80
2
48
52
67
32
47
16
19
83
20
53
69
68
40
29
74
79
3
38
25
36
70
81
13
75
28
39

> <PUBCHEM_MMFF94_PARTIAL_CHARGES>
35
1 -0.68
10 0.34
11 0.28
12 0.4
13 0.33
14 0.45
15 0.45
16 0.14
17 0.28
18 -0.14
19 -0.15
2 -0.68
20 -0.15
21 -0.15
22 -0.15
23 -0.15
3 -0.68
33 0.4
34 0.36
35 0.36
36 0.4
37 0.4
38 0.4
39 0.15
4 -0.68
40 0.15
41 0.4
42 0.15
43 0.15
44 0.15
5 -0.57
6 -0.57
7 -0.68
8 -0.99
9 0.28

> <PUBCHEM_EFFECTIVE_ROTOR_COUNT>
9

> <PUBCHEM_PHARMACOPHORE_FEATURES>
16
1 1 acceptor
1 1 donor
1 12 anion
1 2 acceptor
1 2 donor
1 3 acceptor
1 3 donor
1 4 acceptor
1 4 donor
1 5 acceptor
1 6 acceptor
1 7 acceptor
1 7 donor
1 8 cation
1 8 donor
6 18 19 20 21 22 23 rings

> <PUBCHEM_HEAVY_ATOM_COUNT>
23

> <PUBCHEM_ATOM_DEF_STEREO_COUNT>
4

> <PUBCHEM_ATOM_UDEF_STEREO_COUNT>
1

> <PUBCHEM_BOND_DEF_STEREO_COUNT>
0

> <PUBCHEM_BOND_UDEF_STEREO_COUNT>
0

> <PUBCHEM_ISOTOPIC_ATOM_COUNT>
1

> <PUBCHEM_COMPONENT_COUNT>
1

> <PUBCHEM_CACTVS_TAUTO_COUNT>
1001

> <PUBCHEM_CONFORMER_ID>
07BD72D800000001

> <PUBCHEM_MMFF94_ENERGY>
40.1257

> <PUBCHEM_FEATURE_SELFOVERLAP>
81.236

> <PUBCHEM_SHAPE_FINGERPRINT>
10366900 7 14691188832959454049
11578080 2 18201139001835490449
12156800 1 17034384421290635447
12422481 6 17691438238329510033
12553582 1 18200614556363227087
12633257 1 17489309624783303275
12788726 201 18129398024486566409
128993 33 12107780861081897031
13004483 165 18337943481305152227
13083527 12 18341034298954156352
13911987 19 17174656000315880980
14081887 123 17274263824950129739
14251757 17 16587742019004649795
14713325 29 7925040673831763432
14787075 74 17056966491760601224
192875 21 18410291372029999755
19777482 4 18189058603129543379
20621476 51 17976808797132160866
20626108 58 18271231816033920583
23419403 2 17628596896103791745
23557571 272 16343710884997532979
23559900 14 17131568136613949612
339767 52 18273206500020179110
3797600 57 16773519970768936064
5161694 15 16226053275111639251
5262128 65 17681835438774623365
6438754 60 17823121355382447411
85463 6 18130787836868674095
9925002 15 16017146967771745577

> <PUBCHEM_SHAPE_MULTIPOLES>
427.26
7.76
3.14
2.02
0.76
0.23
0.76
5.2
-2.17
-1.1
0.2
0.07
-0.29
-1.85

> <PUBCHEM_SHAPE_SELFOVERLAP>
869.908

> <PUBCHEM_SHAPE_VOLUME>
245.7

> <PUBCHEM_COORDINATE_TYPE>
2
5
10