131637981
  -OEChem-05072106003D

 24 24  0     1  0  0  0  0  0999 V2000
    0.6670    1.3187    0.1027 O   0  0  0  0  0  0  0  0  0  0  0  0
    0.0386   -2.3170    0.1041 O   0  0  0  0  0  0  0  0  0  0  0  0
    1.3224   -0.3635   -1.4286 O   0  0  0  0  0  0  0  0  0  0  0  0
   -2.5936   -1.2445    0.0937 O   0  0  0  0  0  0  0  0  0  0  0  0
   -2.0488    1.3081    1.0562 O   0  0  0  0  0  0  0  0  0  0  0  0
    3.2782    0.4589    0.3566 O   0  0  0  0  0  0  0  0  0  0  0  0
   -0.2156   -0.9365    0.3547 C   0  0  1  0  0  0  0  0  0  0  0  0
    0.9878   -0.0701   -0.0687 C   0  0  2  0  0  0  0  0  0  0  0  0
   -1.4721   -0.5282   -0.4178 C   0  0  2  0  0  0  0  0  0  0  0  0
   -1.7155    0.9754   -0.2931 C   0  0  2  0  0  0  0  0  0  0  0  0
   -0.4610    1.7553   -0.6626 C   0  0  0  0  0  0  0  0  0  0  0  0
    2.2123   -0.3568    0.8027 C   0  0  0  0  0  0  0  0  0  0  0  0
   -0.4108   -0.8290    1.4295 H   1  0  0  0  0  0  0  0  0  0  0  0
   -1.3905   -0.8135   -1.4721 H   0  0  0  0  0  0  0  0  0  0  0  0
   -2.5651    1.2757   -0.9158 H   0  0  0  0  0  0  0  0  0  0  0  0
   -0.2346    1.6632   -1.7306 H   0  0  0  0  0  0  0  0  0  0  0  0
   -0.5948    2.8200   -0.4437 H   0  0  0  0  0  0  0  0  0  0  0  0
    2.5366   -1.3978    0.7135 H   0  0  0  0  0  0  0  0  0  0  0  0
    2.0158   -0.1183    1.8530 H   0  0  0  0  0  0  0  0  0  0  0  0
    0.7180   -2.6127    0.7328 H   0  0  0  0  0  0  0  0  0  0  0  0
    0.5372   -0.6578   -1.9132 H   0  0  0  0  0  0  0  0  0  0  0  0
   -3.3784   -0.9507   -0.3996 H   0  0  0  0  0  0  0  0  0  0  0  0
   -2.2323    2.2625    1.0869 H   0  0  0  0  0  0  0  0  0  0  0  0
    4.0446    0.2667    0.9234 H   0  0  0  0  0  0  0  0  0  0  0  0
  1  8  1  0  0  0  0
  1 11  1  0  0  0  0
  2  7  1  0  0  0  0
  2 20  1  0  0  0  0
  3  8  1  0  0  0  0
  3 21  1  0  0  0  0
  4  9  1  0  0  0  0
  4 22  1  0  0  0  0
  5 10  1  0  0  0  0
  5 23  1  0  0  0  0
  6 12  1  0  0  0  0
  6 24  1  0  0  0  0
  7  8  1  0  0  0  0
  7  9  1  0  0  0  0
  7 13  1  0  0  0  0
  8 12  1  0  0  0  0
  9 10  1  0  0  0  0
  9 14  1  0  0  0  0
 10 11  1  0  0  0  0
 10 15  1  0  0  0  0
 11 16  1  0  0  0  0
 11 17  1  0  0  0  0
 12 18  1  0  0  0  0
 12 19  1  0  0  0  0
M  ISO  1  13   2
M  END
> <PUBCHEM_COMPOUND_CID>
131637981

> <PUBCHEM_CONFORMER_RMSD>
0.6

> <PUBCHEM_CONFORMER_DIVERSEORDER>
1
5
4
3
2

> <PUBCHEM_MMFF94_PARTIAL_CHARGES>
17
1 -0.56
10 0.28
11 0.28
12 0.28
2 -0.68
20 0.4
21 0.4
22 0.4
23 0.4
24 0.4
3 -0.68
4 -0.68
5 -0.68
6 -0.68
7 0.28
8 0.56
9 0.28

> <PUBCHEM_EFFECTIVE_ROTOR_COUNT>
2.2

> <PUBCHEM_PHARMACOPHORE_FEATURES>
12
1 1 acceptor
1 2 acceptor
1 2 donor
1 3 acceptor
1 3 donor
1 4 acceptor
1 4 donor
1 5 acceptor
1 5 donor
1 6 acceptor
1 6 donor
6 1 7 8 9 10 11 rings

> <PUBCHEM_HEAVY_ATOM_COUNT>
12

> <PUBCHEM_ATOM_DEF_STEREO_COUNT>
3

> <PUBCHEM_ATOM_UDEF_STEREO_COUNT>
1

> <PUBCHEM_BOND_DEF_STEREO_COUNT>
0

> <PUBCHEM_BOND_UDEF_STEREO_COUNT>
0

> <PUBCHEM_ISOTOPIC_ATOM_COUNT>
1

> <PUBCHEM_COMPONENT_COUNT>
1

> <PUBCHEM_CACTVS_TAUTO_COUNT>
1

> <PUBCHEM_CONFORMER_ID>
07D8A2DD00000001

> <PUBCHEM_MMFF94_ENERGY>
32.4956

> <PUBCHEM_FEATURE_SELFOVERLAP>
60.975

> <PUBCHEM_SHAPE_FINGERPRINT>
12423570 1 17775003560795562207
13024252 1 15502363500701523024
13839132 238 17845942822701350800
15310529 11 15697713723066003701
15775835 57 18334854970233019008
16945 1 17846206812829081270
18185500 45 18335416833765260671
20653085 51 15482662498763288168
20871998 184 18342454889056635414
21040471 1 18048882896554560845
21922407 69 15143531210787256205
23402539 116 18199170944651070423
23552423 10 18115025186886613706
241688 4 18334851749176436465
2748010 2 18338234856012837679
29004967 10 17060619988436558468
369184 2 18188480298704929512
5084963 1 18271513273651115168
54338 74 18262505017691935985

> <PUBCHEM_SHAPE_MULTIPOLES>
211.74
3.32
1.83
0.93
1.33
0.31
0.1
-0.18
-0.64
-0.64
0.02
0.07
-0.11
-0.09

> <PUBCHEM_SHAPE_SELFOVERLAP>
425.872

> <PUBCHEM_SHAPE_VOLUME>
122.4

> <PUBCHEM_COORDINATE_TYPE>
2
5
10