131700526
  -OEChem-05072106003D

 48 50  0     1  0  0  0  0  0999 V2000
    3.1328   -0.8781    0.9656 O   0  0  0  0  0  0  0  0  0  0  0  0
    3.3327    1.4812    1.0969 O   0  0  0  0  0  0  0  0  0  0  0  0
    3.9367   -0.6175   -1.8327 O   0  0  0  0  0  0  0  0  0  0  0  0
    6.6088   -0.0767   -1.1715 O   0  0  0  0  0  0  0  0  0  0  0  0
    5.3583   -2.3713   -0.1906 O   0  0  0  0  0  0  0  0  0  0  0  0
   -1.5455    2.3034   -1.4359 O   0  0  0  0  0  0  0  0  0  0  0  0
   -0.2976    3.0517    0.3051 O   0  0  0  0  0  0  0  0  0  0  0  0
    0.7024    0.5153    0.6185 N   0  0  0  0  0  0  0  0  0  0  0  0
   -5.1932    1.3571    0.2556 N   0  0  0  0  0  0  0  0  0  0  0  0
    3.1237    0.3586    0.2348 C   0  0  1  0  0  0  0  0  0  0  0  0
    4.2362    0.3547   -0.8318 C   0  0  1  0  0  0  0  0  0  0  0  0
    5.5908    0.0396   -0.1844 C   0  0  1  0  0  0  0  0  0  0  0  0
    5.5327   -1.2357    0.6559 C   0  0  1  0  0  0  0  0  0  0  0  0
    1.7375    0.4892   -0.4016 C   0  0  0  0  0  0  0  0  0  0  0  0
    4.3653   -1.1619    1.6349 C   0  0  0  0  0  0  0  0  0  0  0  0
   -0.6200    0.6497    0.0198 C   0  0  1  0  0  0  0  0  0  0  0  0
   -1.6958    0.1408    0.9876 C   0  0  0  0  0  0  0  0  0  0  0  0
   -3.0726    0.2733    0.4238 C   0  0  0  0  0  0  0  0  0  0  0  0
   -3.9183   -0.5791   -0.1536 C   0  0  0  0  0  0  0  0  0  0  0  0
   -5.2355    0.0708   -0.4711 C   0  0  1  0  0  0  0  0  0  0  0  0
   -0.7841    2.1210   -0.3237 C   0  0  0  0  0  0  0  0  0  0  0  0
   -3.9539    1.4271    0.6487 C   0  0  0  0  0  0  0  0  0  0  0  0
   -3.8010   -2.0021   -0.3475 C   0  0  0  0  0  0  0  0  0  0  0  0
   -6.3948   -0.8143   -0.1101 C   0  0  0  0  0  0  0  0  0  0  0  0
   -4.9212   -2.7475   -0.3238 C   0  0  0  0  0  0  0  0  0  0  0  0
   -6.2245   -2.1491   -0.0687 C   0  0  0  0  0  0  0  0  0  0  0  0
    4.2943    1.3276   -1.3347 H   0  0  0  0  0  0  0  0  0  0  0  0
    5.8692    0.8783    0.4660 H   0  0  0  0  0  0  0  0  0  0  0  0
    6.4785   -1.3806    1.1895 H   0  0  0  0  0  0  0  0  0  0  0  0
    1.5557   -0.3612   -1.0703 H   0  0  0  0  0  0  0  0  0  0  0  0
    1.7074    1.4103   -0.9959 H   0  0  0  0  0  0  0  0  0  0  0  0
    4.2331   -2.1235    2.1416 H   0  0  0  0  0  0  0  0  0  0  0  0
    4.5409   -0.4016    2.4042 H   0  0  0  0  0  0  0  0  0  0  0  0
    0.7541   -0.3483    1.1589 H   0  0  0  0  0  0  0  0  0  0  0  0
   -0.6773    0.0603   -0.9055 H   0  0  0  0  0  0  0  0  0  0  0  0
   -1.5030   -0.9109    1.2353 H   0  0  0  0  0  0  0  0  0  0  0  0
   -1.6484    0.6935    1.9352 H   0  0  0  0  0  0  0  0  0  0  0  0
    2.4774    1.7237    1.4899 H   0  0  0  0  0  0  0  0  0  0  0  0
    4.6775   -0.6231   -2.4626 H   0  0  0  0  0  0  0  0  0  0  0  0
    7.4440   -0.2671   -0.7114 H   0  0  0  0  0  0  0  0  0  0  0  0
    5.3397   -3.1605    0.3772 H   0  0  0  0  0  0  0  0  0  0  0  0
   -5.2990    0.2926   -1.5453 H   0  0  0  0  0  0  0  0  0  0  0  0
   -3.5589    2.2919    1.2021 H   0  0  0  0  0  0  0  0  0  0  0  0
   -2.8227   -2.4586   -0.4396 H   0  0  0  0  0  0  0  0  0  0  0  0
   -7.3744   -0.3790    0.0565 H   0  0  0  0  0  0  0  0  0  0  0  0
   -4.8733   -3.8258   -0.4294 H   0  0  0  0  0  0  0  0  0  0  0  0
   -7.0534   -2.8117    0.1531 H   0  0  0  0  0  0  0  0  0  0  0  0
   -1.6500    3.2538   -1.6547 H   0  0  0  0  0  0  0  0  0  0  0  0
  1 10  1  0  0  0  0
  1 15  1  0  0  0  0
  2 10  1  0  0  0  0
  2 38  1  0  0  0  0
  3 11  1  0  0  0  0
  3 39  1  0  0  0  0
  4 12  1  0  0  0  0
  4 40  1  0  0  0  0
  5 13  1  0  0  0  0
  5 41  1  0  0  0  0
  6 21  1  0  0  0  0
  6 48  1  0  0  0  0
  7 21  2  0  0  0  0
  8 14  1  0  0  0  0
  8 16  1  0  0  0  0
  8 34  1  0  0  0  0
  9 20  1  0  0  0  0
  9 22  2  0  0  0  0
 10 11  1  0  0  0  0
 10 14  1  0  0  0  0
 11 12  1  0  0  0  0
 11 27  1  0  0  0  0
 12 13  1  0  0  0  0
 12 28  1  0  0  0  0
 13 15  1  0  0  0  0
 13 29  1  0  0  0  0
 14 30  1  0  0  0  0
 14 31  1  0  0  0  0
 15 32  1  0  0  0  0
 15 33  1  0  0  0  0
 16 17  1  0  0  0  0
 16 21  1  0  0  0  0
 16 35  1  0  0  0  0
 17 18  1  0  0  0  0
 17 36  1  0  0  0  0
 17 37  1  0  0  0  0
 18 19  2  0  0  0  0
 18 22  1  0  0  0  0
 19 20  1  0  0  0  0
 19 23  1  0  0  0  0
 20 24  1  0  0  0  0
 20 42  1  0  0  0  0
 22 43  1  0  0  0  0
 23 25  2  0  0  0  0
 23 44  1  0  0  0  0
 24 26  2  0  0  0  0
 24 45  1  0  0  0  0
 25 26  1  0  0  0  0
 25 46  1  0  0  0  0
 26 47  1  0  0  0  0
M  END
> <PUBCHEM_COMPOUND_CID>
131700526

> <PUBCHEM_CONFORMER_RMSD>
1.2

> <PUBCHEM_CONFORMER_DIVERSEORDER>
2
62
107
79
32
1
19
25
114
112
14
63
108
103
9
102
73
55
54
53
90
43
24
98
91
37
30
49
18
28
57
47
106
5
109
64
88
89
66
95
72
86
87
16
39
50
11
51
52
92
58
100
65
42
34
67
45
46
85
83
27
74
7
82
26
80
36
104
23
29
111
15
110
31
78
8
96
38
10
44
93
13
56
101
71
61
75
35
22
77
33
40
59
76
115
99
41
4
68
20
21
97
6
81
94
12
113
17
3
48
70
69
105
84
60

> <PUBCHEM_MMFF94_PARTIAL_CHARGES>
37
1 -0.56
10 0.56
11 0.28
12 0.28
13 0.28
14 0.27
15 0.28
16 0.33
17 0.14
18 -0.12
19 -0.14
2 -0.68
20 0.52
21 0.66
22 0.38
23 -0.15
24 -0.29
25 -0.15
26 -0.15
3 -0.68
34 0.36
38 0.4
39 0.4
4 -0.68
40 0.4
41 0.4
43 0.06
44 0.15
45 0.15
46 0.15
47 0.15
48 0.5
5 -0.68
6 -0.65
7 -0.57
8 -0.9
9 -0.7

> <PUBCHEM_EFFECTIVE_ROTOR_COUNT>
7.2

> <PUBCHEM_PHARMACOPHORE_FEATURES>
18
1 1 acceptor
1 2 acceptor
1 2 donor
1 3 acceptor
1 3 donor
1 4 acceptor
1 4 donor
1 5 acceptor
1 5 donor
1 6 acceptor
1 7 acceptor
1 8 cation
1 8 donor
1 9 acceptor
3 6 7 21 anion
5 9 18 19 20 22 rings
6 1 10 11 12 13 15 rings
6 19 20 23 24 25 26 rings

> <PUBCHEM_HEAVY_ATOM_COUNT>
26

> <PUBCHEM_ATOM_DEF_STEREO_COUNT>
3

> <PUBCHEM_ATOM_UDEF_STEREO_COUNT>
3

> <PUBCHEM_BOND_DEF_STEREO_COUNT>
0

> <PUBCHEM_BOND_UDEF_STEREO_COUNT>
0

> <PUBCHEM_ISOTOPIC_ATOM_COUNT>
0

> <PUBCHEM_COMPONENT_COUNT>
1

> <PUBCHEM_CACTVS_TAUTO_COUNT>
2

> <PUBCHEM_CONFORMER_ID>
07D9972E00000002

> <PUBCHEM_MMFF94_ENERGY>
60.6963

> <PUBCHEM_FEATURE_SELFOVERLAP>
91.61

> <PUBCHEM_SHAPE_FINGERPRINT>
10 15 17274811477100292634
10595046 47 18334579044797289700
10622 236 17315894591153544866
11069576 57 17313651643388931810
11315181 36 18342178886511753657
11524674 6 17060617802768113415
12166972 35 18113620122790379133
12236239 1 18113618967106228192
12516196 113 18413388760730904001
12788726 201 18188206481671206633
13288520 33 18413108381830423837
13583140 156 16056877992414345553
13782708 43 17988920072066503431
14068700 675 18333732420823115292
14123256 34 18202570587575550694
14251752 14 17894901902891933117
14251764 30 18413387652803070457
14347332 77 18042398041698939410
14556957 393 16515979068386905878
15183329 4 18407758140547888643
15250474 111 18187916227770793530
15348495 7 16128084654699747259
15537594 2 18259708882824852139
16990350 14 16687681845123961161
17492 89 18049722116733630563
17844677 252 18343305889861454529
17857418 61 18334290950996310290
1813 80 18259706717971820789
18222031 100 18409728486511488201
200 152 17894632534927188048
20028762 73 18410006620531799954
21033648 29 16271918282131155475
21150785 3 17895196644484693646
21267235 1 18336549421769821491
21623969 137 16988849367181562974
220451 1 18335707117471923864
22950370 63 18408885144087090481
23198884 109 15285351804796824471
23402539 116 18333730204345176957
23522609 53 18118994458323512916
23559900 14 18270389629335657569
239999 70 18201720695558083456
249999 5 17913482721098594728
25122255 55 18201446882450250679
2838139 119 11819269005505571651
2916195 48 7853570193021819391
3004659 81 18113897165402953602
335352 9 18410289221506464021
351380 3 18408038524465671595
4073 2 18261675999083951338
465052 167 18273497883850035662
5104073 3 17989205971096926057
531348 171 17896591800613362717
559249 180 18410571774182355531
59682541 52 14490734742048459730
7237137 82 17894627011620598357
7495541 125 18344143700932178232
86090 222 16844472516607814590
960060 61 17821730558919019260

> <PUBCHEM_SHAPE_MULTIPOLES>
484.02
17.64
2.53
1.14
3.72
0.11
-0.07
-10.18
-1.6
-2.18
-0.13
1.33
0
-0.66

> <PUBCHEM_SHAPE_SELFOVERLAP>
1029.683

> <PUBCHEM_SHAPE_VOLUME>
267.1

> <PUBCHEM_COORDINATE_TYPE>
2
5
10