131712179
  -OEChem-05072106003D

 43 42  0     1  0  0  0  0  0999 V2000
    0.1953   -1.2030    0.9014 O   0  0  0  0  0  0  0  0  0  0  0  0
   -1.5183    1.5990   -0.6689 O   0  0  0  0  0  0  0  0  0  0  0  0
    1.6271    1.3165    0.7558 O   0  0  0  0  0  0  0  0  0  0  0  0
   -2.9634   -0.7788   -0.3316 O   0  0  0  0  0  0  0  0  0  0  0  0
    2.5114   -0.5403   -2.0535 O   0  5  0  0  0  0  0  0  0  0  0  0
   -0.4180   -2.8659   -0.5803 O   0  0  0  0  0  0  0  0  0  0  0  0
   -2.1142    3.1977    0.8886 O   0  0  0  0  0  0  0  0  0  0  0  0
    2.5586    2.9340   -0.6053 O   0  0  0  0  0  0  0  0  0  0  0  0
   -4.7340   -1.5290    0.9485 O   0  0  0  0  0  0  0  0  0  0  0  0
    4.3243   -1.8366   -0.1615 N   0  3  0  0  0  0  0  0  0  0  0  0
    5.1444   -2.4935   -0.4072 N   0  0  0  0  0  0  0  0  0  0  0  0
   -0.0337   -0.2123   -0.1107 C   0  0  1  0  0  0  0  0  0  0  0  0
   -1.1795    0.6908    0.3870 C   0  0  2  0  0  0  0  0  0  0  0  0
    1.2909    0.5343   -0.3967 C   0  0  2  0  0  0  0  0  0  0  0  0
   -2.4602   -0.0425    0.7764 C   0  0  0  0  0  0  0  0  0  0  0  0
    2.4429   -0.4120   -0.7979 C   0  0  0  0  0  0  0  0  0  0  0  0
   -0.0390   -2.4894    0.5205 C   0  0  0  0  0  0  0  0  0  0  0  0
   -1.9731    2.8186   -0.2661 C   0  0  0  0  0  0  0  0  0  0  0  0
    3.2145   -0.9472    0.1719 C   0  0  0  0  0  0  0  0  0  0  0  0
    2.2598    2.4955    0.4972 C   0  0  0  0  0  0  0  0  0  0  0  0
   -4.1141   -1.4817   -0.1053 C   0  0  0  0  0  0  0  0  0  0  0  0
    0.2396   -3.4079    1.6716 C   0  0  0  0  0  0  0  0  0  0  0  0
   -2.2861    3.6565   -1.4687 C   0  0  0  0  0  0  0  0  0  0  0  0
    2.5478    3.2012    1.7876 C   0  0  0  0  0  0  0  0  0  0  0  0
   -4.5233   -2.2041   -1.3529 C   0  0  0  0  0  0  0  0  0  0  0  0
   -0.3511   -0.6612   -1.0615 H   0  0  0  0  0  0  0  0  0  0  0  0
   -0.8292    1.2316    1.2759 H   0  0  0  0  0  0  0  0  0  0  0  0
    1.0680    1.2295   -1.2218 H   0  0  0  0  0  0  0  0  0  0  0  0
   -2.2701   -0.7233    1.6142 H   0  0  0  0  0  0  0  0  0  0  0  0
   -3.2256    0.6792    1.0857 H   0  0  0  0  0  0  0  0  0  0  0  0
    3.0385   -0.7458    1.2231 H   0  0  0  0  0  0  0  0  0  0  0  0
   -0.4239   -3.1674    2.5061 H   0  0  0  0  0  0  0  0  0  0  0  0
    0.0527   -4.4409    1.3644 H   0  0  0  0  0  0  0  0  0  0  0  0
    1.2864   -3.3183    1.9726 H   0  0  0  0  0  0  0  0  0  0  0  0
   -1.3813    3.8020   -2.0642 H   0  0  0  0  0  0  0  0  0  0  0  0
   -2.6505    4.6352   -1.1438 H   0  0  0  0  0  0  0  0  0  0  0  0
   -3.0659    3.1743   -2.0635 H   0  0  0  0  0  0  0  0  0  0  0  0
    1.6115    3.4162    2.3088 H   0  0  0  0  0  0  0  0  0  0  0  0
    3.0552    4.1473    1.5782 H   0  0  0  0  0  0  0  0  0  0  0  0
    3.2024    2.5849    2.4089 H   0  0  0  0  0  0  0  0  0  0  0  0
   -4.7158   -1.4836   -2.1517 H   0  0  0  0  0  0  0  0  0  0  0  0
   -5.4413   -2.7672   -1.1619 H   0  0  0  0  0  0  0  0  0  0  0  0
   -3.7391   -2.9060   -1.6479 H   0  0  0  0  0  0  0  0  0  0  0  0
  1 12  1  0  0  0  0
  1 17  1  0  0  0  0
  2 13  1  0  0  0  0
  2 18  1  0  0  0  0
  3 14  1  0  0  0  0
  3 20  1  0  0  0  0
  4 15  1  0  0  0  0
  4 21  1  0  0  0  0
  5 16  1  0  0  0  0
  6 17  2  0  0  0  0
  7 18  2  0  0  0  0
  8 20  2  0  0  0  0
  9 21  2  0  0  0  0
 10 11  3  0  0  0  0
 10 19  1  0  0  0  0
 12 13  1  0  0  0  0
 12 14  1  0  0  0  0
 12 26  1  0  0  0  0
 13 15  1  0  0  0  0
 13 27  1  0  0  0  0
 14 16  1  0  0  0  0
 14 28  1  0  0  0  0
 15 29  1  0  0  0  0
 15 30  1  0  0  0  0
 16 19  2  3  0  0  0
 17 22  1  0  0  0  0
 18 23  1  0  0  0  0
 19 31  1  0  0  0  0
 20 24  1  0  0  0  0
 21 25  1  0  0  0  0
 22 32  1  0  0  0  0
 22 33  1  0  0  0  0
 22 34  1  0  0  0  0
 23 35  1  0  0  0  0
 23 36  1  0  0  0  0
 23 37  1  0  0  0  0
 24 38  1  0  0  0  0
 24 39  1  0  0  0  0
 24 40  1  0  0  0  0
 25 41  1  0  0  0  0
 25 42  1  0  0  0  0
 25 43  1  0  0  0  0
M  CHG  2   5  -1  10   1
M  END
> <PUBCHEM_COMPOUND_CID>
131712179

> <PUBCHEM_CONFORMER_RMSD>
1

> <PUBCHEM_CONFORMER_DIVERSEORDER>
1
44
57
68
50
71
26
42
31
12
41
28
6
74
36
78
56
34
55
52
63
64
14
76
25
30
54
47
21
67
22
75
70
66
79
49
23
33
65
32
20
43
45
62
58
59
9
11
60
5
38
48
51
72
46
29
10
17
24
40
73
77
61
18
69
13
53
16
37
35
4
15
7
2
39
19
3
27
8

> <PUBCHEM_MMFF94_PARTIAL_CHARGES>
26
1 -0.43
10 1.36
11 -0.49
12 0.28
13 0.28
14 0.42
15 0.28
16 -0.29
17 0.66
18 0.66
19 -0.02
2 -0.43
20 0.66
21 0.66
22 0.06
23 0.06
24 0.06
25 0.06
3 -0.43
31 0.15
4 -0.43
5 -0.85
6 -0.57
7 -0.57
8 -0.57
9 -0.57

> <PUBCHEM_EFFECTIVE_ROTOR_COUNT>
12

> <PUBCHEM_PHARMACOPHORE_FEATURES>
4
1 6 acceptor
1 7 acceptor
1 8 acceptor
1 9 acceptor

> <PUBCHEM_HEAVY_ATOM_COUNT>
25

> <PUBCHEM_ATOM_DEF_STEREO_COUNT>
3

> <PUBCHEM_ATOM_UDEF_STEREO_COUNT>
0

> <PUBCHEM_BOND_DEF_STEREO_COUNT>
0

> <PUBCHEM_BOND_UDEF_STEREO_COUNT>
1

> <PUBCHEM_ISOTOPIC_ATOM_COUNT>
0

> <PUBCHEM_COMPONENT_COUNT>
1

> <PUBCHEM_CACTVS_TAUTO_COUNT>
1

> <PUBCHEM_CONFORMER_ID>
07D9C4B300000001

> <PUBCHEM_MMFF94_ENERGY>
42.7251

> <PUBCHEM_FEATURE_SELFOVERLAP>
20.3

> <PUBCHEM_SHAPE_FINGERPRINT>
1100329 8 17469315942203963482
12403259 226 18411136930936518746
13140716 1 18340491062463488497
14178342 30 18267295426714159432
20600515 1 17459741717398598701
20691752 17 18335426828222808417
20739085 24 18192738798003318801
23419403 2 17631147754801371704
23558518 356 18411143528133464089
23559900 14 18336537257457419381
2748010 2 18336271261816779801
3286 77 18409731755213514302
350125 39 18410580569342123441
59554788 170 18410576227314270847
59755656 215 18269272542533069748
70251023 43 18412538812895049811

> <PUBCHEM_SHAPE_MULTIPOLES>
451.7
7.69
5.01
1.41
1.3
2.41
0.02
-4.42
1.34
-0.25
-0.53
-0.15
0.12
1.13

> <PUBCHEM_SHAPE_SELFOVERLAP>
895.776

> <PUBCHEM_SHAPE_VOLUME>
264.2

> <PUBCHEM_COORDINATE_TYPE>
2
5
10