131864693
  -OEChem-05072106003D

 87 89  0     1  0  0  0  0  0999 V2000
   -1.3388   -0.9816    0.8293 O   0  0  0  0  0  0  0  0  0  0  0  0
    0.3952   -1.0164   -0.7450 O   0  0  0  0  0  0  0  0  0  0  0  0
    2.9851   -0.0329    1.6869 O   0  0  0  0  0  0  0  0  0  0  0  0
   -3.2189   -3.2965   -1.1750 O   0  0  0  0  0  0  0  0  0  0  0  0
   -1.9086    0.0394   -1.8106 O   0  0  0  0  0  0  0  0  0  0  0  0
    4.7427    0.0091    0.0964 O   0  0  0  0  0  0  0  0  0  0  0  0
    1.9855   -3.3954   -0.4916 O   0  0  0  0  0  0  0  0  0  0  0  0
   -5.2047    2.5623   -0.3159 O   0  0  0  0  0  0  0  0  0  0  0  0
    4.7658   -2.7965    0.0443 O   0  0  0  0  0  0  0  0  0  0  0  0
   -7.5339    0.7485   -2.4780 O   0  0  0  0  0  0  0  0  0  0  0  0
   -8.0582    2.8261    0.4383 O   0  0  0  0  0  0  0  0  0  0  0  0
    1.4099    2.1863    1.9019 O   0  0  0  0  0  0  0  0  0  0  0  0
   -9.9203   -0.2468    1.1042 O   0  0  0  0  0  0  0  0  0  0  0  0
    6.6525    3.1257    0.3923 O   0  0  0  0  0  0  0  0  0  0  0  0
    7.7884    0.8353    1.8322 O   0  0  0  0  0  0  0  0  0  0  0  0
    4.4914    4.0129   -1.1209 O   0  0  0  0  0  0  0  0  0  0  0  0
    9.0591    0.6386   -0.4655 O   0  0  0  0  0  0  0  0  0  0  0  0
    8.3215   -0.5975   -2.7083 O   0  0  0  0  0  0  0  0  0  0  0  0
   -4.1216    0.0230    0.1448 N   0  0  0  0  0  0  0  0  0  0  0  0
   -3.7021   -1.3820    0.2384 C   0  0  1  0  0  0  0  0  0  0  0  0
   -3.2446   -1.8697   -1.1499 C   0  0  1  0  0  0  0  0  0  0  0  0
   -2.5903   -1.4926    1.3048 C   0  0  1  0  0  0  0  0  0  0  0  0
   -1.8504   -1.3569   -1.5200 C   0  0  2  0  0  0  0  0  0  0  0  0
   -0.8617   -1.5804   -0.3740 C   0  0  2  0  0  0  0  0  0  0  0  0
    1.3708   -1.2072    0.2769 C   0  0  1  0  0  0  0  0  0  0  0  0
   -5.4636    0.1232   -0.4356 C   0  0  2  0  0  0  0  0  0  0  0  0
    2.4941   -2.0737   -0.2962 C   0  0  1  0  0  0  0  0  0  0  0  0
    1.9068    0.1467    0.7615 C   0  0  1  0  0  0  0  0  0  0  0  0
   -5.6595    1.4853   -1.1355 C   0  0  1  0  0  0  0  0  0  0  0  0
    3.6750   -2.1309    0.6708 C   0  0  2  0  0  0  0  0  0  0  0  0
   -7.1308    1.7134   -1.5075 C   0  0  2  0  0  0  0  0  0  0  0  0
    4.0982   -0.7343    1.1291 C   0  0  2  0  0  0  0  0  0  0  0  0
   -2.4256   -2.9052    1.8691 C   0  0  0  0  0  0  0  0  0  0  0  0
   -6.5280   -0.1729    0.5887 C   0  0  0  0  0  0  0  0  0  0  0  0
   -8.0668    1.5986   -0.2897 C   0  0  1  0  0  0  0  0  0  0  0  0
   -7.6948    0.4917    0.6720 C   0  0  0  0  0  0  0  0  0  0  0  0
    0.8354    0.9635    1.4791 C   0  0  0  0  0  0  0  0  0  0  0  0
    5.7147    0.8956    0.6285 C   0  0  2  0  0  0  0  0  0  0  0  0
   -8.7136    0.1538    1.7236 C   0  0  0  0  0  0  0  0  0  0  0  0
    5.7593    2.1881   -0.2077 C   0  0  1  0  0  0  0  0  0  0  0  0
    7.0602    0.1751    0.8043 C   0  0  1  0  0  0  0  0  0  0  0  0
    4.3834    2.8471   -0.3102 C   0  0  0  0  0  0  0  0  0  0  0  0
    7.9428    0.1180   -0.4415 C   0  0  0  0  0  0  0  0  0  0  0  0
    7.3986   -0.6378   -1.6386 C   0  0  0  0  0  0  0  0  0  0  0  0
   -4.5326   -2.0064    0.5883 H   0  0  0  0  0  0  0  0  0  0  0  0
   -3.9424   -1.5742   -1.9391 H   0  0  0  0  0  0  0  0  0  0  0  0
   -2.8619   -0.8606    2.1607 H   0  0  0  0  0  0  0  0  0  0  0  0
   -1.4725   -1.8590   -2.4185 H   0  0  0  0  0  0  0  0  0  0  0  0
   -0.7140   -2.6560   -0.2233 H   0  0  0  0  0  0  0  0  0  0  0  0
    0.9530   -1.7457    1.1405 H   0  0  0  0  0  0  0  0  0  0  0  0
   -5.6047   -0.6319   -1.2180 H   0  0  0  0  0  0  0  0  0  0  0  0
   -3.4509    0.5503   -0.4123 H   0  0  0  0  0  0  0  0  0  0  0  0
    2.8084   -1.7141   -1.2829 H   0  0  0  0  0  0  0  0  0  0  0  0
    2.2600    0.7342   -0.0911 H   0  0  0  0  0  0  0  0  0  0  0  0
   -5.0463    1.4926   -2.0461 H   0  0  0  0  0  0  0  0  0  0  0  0
    3.3834   -2.7289    1.5439 H   0  0  0  0  0  0  0  0  0  0  0  0
   -7.2349    2.7067   -1.9612 H   0  0  0  0  0  0  0  0  0  0  0  0
    4.8045   -0.8929    1.9541 H   0  0  0  0  0  0  0  0  0  0  0  0
   -2.1575   -3.6399    1.1063 H   0  0  0  0  0  0  0  0  0  0  0  0
   -3.3483   -3.2412    2.3528 H   0  0  0  0  0  0  0  0  0  0  0  0
   -1.6201   -2.9204    2.6115 H   0  0  0  0  0  0  0  0  0  0  0  0
   -6.3482   -0.9822    1.2921 H   0  0  0  0  0  0  0  0  0  0  0  0
   -9.0917    1.4353   -0.6439 H   0  0  0  0  0  0  0  0  0  0  0  0
    0.4724    0.4408    2.3699 H   0  0  0  0  0  0  0  0  0  0  0  0
   -0.0021    1.1953    0.8157 H   0  0  0  0  0  0  0  0  0  0  0  0
   -4.1187   -3.6094   -0.9802 H   0  0  0  0  0  0  0  0  0  0  0  0
   -2.5219    0.1574   -2.5560 H   0  0  0  0  0  0  0  0  0  0  0  0
    5.3933    1.2217    1.6307 H   0  0  0  0  0  0  0  0  0  0  0  0
    1.7045   -3.7435    0.3717 H   0  0  0  0  0  0  0  0  0  0  0  0
   -5.3288    3.3856   -0.8182 H   0  0  0  0  0  0  0  0  0  0  0  0
   -8.9116    1.0281    2.3525 H   0  0  0  0  0  0  0  0  0  0  0  0
   -8.3760   -0.6599    2.3744 H   0  0  0  0  0  0  0  0  0  0  0  0
    5.4971   -2.8273    0.6842 H   0  0  0  0  0  0  0  0  0  0  0  0
   -8.4429    0.9640   -2.7477 H   0  0  0  0  0  0  0  0  0  0  0  0
    6.1233    1.9911   -1.2214 H   0  0  0  0  0  0  0  0  0  0  0  0
   -8.3707    3.5250   -0.1612 H   0  0  0  0  0  0  0  0  0  0  0  0
    6.9219   -0.8597    1.1333 H   0  0  0  0  0  0  0  0  0  0  0  0
    0.7130    2.6893    2.3565 H   0  0  0  0  0  0  0  0  0  0  0  0
    3.6620    2.1853   -0.7907 H   0  0  0  0  0  0  0  0  0  0  0  0
    4.0157    3.1540    0.6739 H   0  0  0  0  0  0  0  0  0  0  0  0
  -10.5578   -0.4386    1.8129 H   0  0  0  0  0  0  0  0  0  0  0  0
    6.6474    3.9275   -0.1579 H   0  0  0  0  0  0  0  0  0  0  0  0
    7.9052    1.7641    1.5691 H   0  0  0  0  0  0  0  0  0  0  0  0
    7.2365   -1.6803   -1.3512 H   0  0  0  0  0  0  0  0  0  0  0  0
    6.4619   -0.1896   -1.9745 H   0  0  0  0  0  0  0  0  0  0  0  0
    3.6052    4.4105   -1.1673 H   0  0  0  0  0  0  0  0  0  0  0  0
    7.9471   -1.1294   -3.4311 H   0  0  0  0  0  0  0  0  0  0  0  0
  1 22  1  0  0  0  0
  1 24  1  0  0  0  0
  2 24  1  0  0  0  0
  2 25  1  0  0  0  0
  3 28  1  0  0  0  0
  3 32  1  0  0  0  0
  4 21  1  0  0  0  0
  4 66  1  0  0  0  0
  5 23  1  0  0  0  0
  5 67  1  0  0  0  0
  6 32  1  0  0  0  0
  6 38  1  0  0  0  0
  7 27  1  0  0  0  0
  7 69  1  0  0  0  0
  8 29  1  0  0  0  0
  8 70  1  0  0  0  0
  9 30  1  0  0  0  0
  9 73  1  0  0  0  0
 10 31  1  0  0  0  0
 10 74  1  0  0  0  0
 11 35  1  0  0  0  0
 11 76  1  0  0  0  0
 12 37  1  0  0  0  0
 12 78  1  0  0  0  0
 13 39  1  0  0  0  0
 13 81  1  0  0  0  0
 14 40  1  0  0  0  0
 14 82  1  0  0  0  0
 15 41  1  0  0  0  0
 15 83  1  0  0  0  0
 16 42  1  0  0  0  0
 16 86  1  0  0  0  0
 17 43  2  0  0  0  0
 18 44  1  0  0  0  0
 18 87  1  0  0  0  0
 19 20  1  0  0  0  0
 19 26  1  0  0  0  0
 19 52  1  0  0  0  0
 20 21  1  0  0  0  0
 20 22  1  0  0  0  0
 20 45  1  0  0  0  0
 21 23  1  0  0  0  0
 21 46  1  0  0  0  0
 22 33  1  0  0  0  0
 22 47  1  0  0  0  0
 23 24  1  0  0  0  0
 23 48  1  0  0  0  0
 24 49  1  0  0  0  0
 25 27  1  0  0  0  0
 25 28  1  0  0  0  0
 25 50  1  0  0  0  0
 26 29  1  0  0  0  0
 26 34  1  0  0  0  0
 26 51  1  0  0  0  0
 27 30  1  0  0  0  0
 27 53  1  0  0  0  0
 28 37  1  0  0  0  0
 28 54  1  0  0  0  0
 29 31  1  0  0  0  0
 29 55  1  0  0  0  0
 30 32  1  0  0  0  0
 30 56  1  0  0  0  0
 31 35  1  0  0  0  0
 31 57  1  0  0  0  0
 32 58  1  0  0  0  0
 33 59  1  0  0  0  0
 33 60  1  0  0  0  0
 33 61  1  0  0  0  0
 34 36  2  0  0  0  0
 34 62  1  0  0  0  0
 35 36  1  0  0  0  0
 35 63  1  0  0  0  0
 36 39  1  0  0  0  0
 37 64  1  0  0  0  0
 37 65  1  0  0  0  0
 38 40  1  0  0  0  0
 38 41  1  0  0  0  0
 38 68  1  0  0  0  0
 39 71  1  0  0  0  0
 39 72  1  0  0  0  0
 40 42  1  0  0  0  0
 40 75  1  0  0  0  0
 41 43  1  0  0  0  0
 41 77  1  0  0  0  0
 42 79  1  0  0  0  0
 42 80  1  0  0  0  0
 43 44  1  0  0  0  0
 44 84  1  0  0  0  0
 44 85  1  0  0  0  0
M  END
> <PUBCHEM_COMPOUND_CID>
131864693

> <PUBCHEM_CONFORMER_RMSD>
1.4

> <PUBCHEM_CONFORMER_DIVERSEORDER>
1
13
4
19
10
18
9
20
2
16
21
8
14
11
17
7
3
12
6
15
5

> <PUBCHEM_MMFF94_PARTIAL_CHARGES>
58
1 -0.56
10 -0.68
11 -0.68
12 -0.68
13 -0.68
14 -0.68
15 -0.68
16 -0.68
17 -0.57
18 -0.68
19 -0.9
2 -0.56
20 0.27
21 0.28
22 0.28
23 0.28
24 0.56
25 0.28
26 0.41
27 0.28
28 0.28
29 0.28
3 -0.56
30 0.28
31 0.28
32 0.56
34 -0.29
35 0.42
36 -0.28
37 0.28
38 0.28
39 0.42
4 -0.68
40 0.28
41 0.34
42 0.28
43 0.45
44 0.34
5 -0.68
52 0.36
6 -0.56
62 0.15
66 0.4
67 0.4
69 0.4
7 -0.68
70 0.4
73 0.4
74 0.4
76 0.4
78 0.4
8 -0.68
81 0.4
82 0.4
83 0.4
86 0.4
87 0.4
9 -0.68

> <PUBCHEM_EFFECTIVE_ROTOR_COUNT>
16.2

> <PUBCHEM_PHARMACOPHORE_FEATURES>
36
1 1 acceptor
1 10 acceptor
1 10 donor
1 11 acceptor
1 11 donor
1 12 acceptor
1 12 donor
1 13 acceptor
1 13 donor
1 14 acceptor
1 14 donor
1 15 acceptor
1 15 donor
1 16 acceptor
1 16 donor
1 17 acceptor
1 18 acceptor
1 18 donor
1 19 cation
1 19 donor
1 2 acceptor
1 3 acceptor
1 4 acceptor
1 4 donor
1 5 acceptor
1 5 donor
1 6 acceptor
1 7 acceptor
1 7 donor
1 8 acceptor
1 8 donor
1 9 acceptor
1 9 donor
6 1 20 21 22 23 24 rings
6 26 29 31 34 35 36 rings
6 3 25 27 28 30 32 rings

> <PUBCHEM_HEAVY_ATOM_COUNT>
44

> <PUBCHEM_ATOM_DEF_STEREO_COUNT>
17

> <PUBCHEM_ATOM_UDEF_STEREO_COUNT>
0

> <PUBCHEM_BOND_DEF_STEREO_COUNT>
0

> <PUBCHEM_BOND_UDEF_STEREO_COUNT>
0

> <PUBCHEM_ISOTOPIC_ATOM_COUNT>
0

> <PUBCHEM_COMPONENT_COUNT>
1

> <PUBCHEM_CACTVS_TAUTO_COUNT>
6

> <PUBCHEM_CONFORMER_ID>
07DC187500000001

> <PUBCHEM_MMFF94_ENERGY>
107.5834

> <PUBCHEM_FEATURE_SELFOVERLAP>
182.921

> <PUBCHEM_SHAPE_FINGERPRINT>
10 15 18113617872554524491
11456790 92 17749376050009090400
12013929 112 18341905048055422478
12098696 120 18413668010988382160
14040222 383 16805613610949699035
14068700 675 13614520766289604155
15183329 4 17346309389396311979
15406563 5 18202006504342035892
1577012 14 17489579048946697015
15840311 113 18410016576165278060
17686467 74 18041000687918521995
19302320 297 18260547848778210604
21792965 270 18115319993579266585
23576562 1 17987784349970394837
24771293 8 17967533454942809319
3711267 37 18202287991839833985
397830 11 18187088365099327979
4098825 35 18408601491910114363
4169191 19 18412260615315664749
504579 68 17346878940229566582
5104073 3 11747208035386245791
59682541 35 13406798826056337276
6081469 158 11600005444988217019
6086070 43 17346027982632909939

> <PUBCHEM_SHAPE_MULTIPOLES>
794.87
29.91
3.45
1.83
10.8
0.73
0.37
16.7
1.99
-1.5
0.33
0.16
-0.11
1.32

> <PUBCHEM_SHAPE_SELFOVERLAP>
1632.643

> <PUBCHEM_SHAPE_VOLUME>
448.3

> <PUBCHEM_COORDINATE_TYPE>
2
5
10