134694404
  -OEChem-05072106003D

 23 22  0     1  0  0  0  0  0999 V2000
   -3.3108    0.5914   -0.7963 F   0  0  0  0  0  0  0  0  0  0  0  0
    0.9287   -0.7724   -1.5075 O   0  0  0  0  0  0  0  0  0  0  0  0
    0.4116   -1.6763    1.1443 O   0  0  0  0  0  0  0  0  0  0  0  0
    2.6014    1.0567    1.1649 O   0  0  0  0  0  0  0  0  0  0  0  0
   -2.0101   -1.5629    0.0749 O   0  0  0  0  0  0  0  0  0  0  0  0
   -2.1338    1.7315    0.7159 O   0  0  0  0  0  0  0  0  0  0  0  0
    1.0103    0.1012   -0.3734 C   0  0  1  0  0  0  0  0  0  0  0  0
    0.0138   -0.3944    0.6810 C   0  0  1  0  0  0  0  0  0  0  0  0
    2.4758    0.1137    0.0953 C   0  0  1  0  0  0  0  0  0  0  0  0
   -1.4081   -0.4900    0.1315 C   0  0  0  0  0  0  0  0  0  0  0  0
    3.4699    0.5015   -0.9909 C   0  0  0  0  0  0  0  0  0  0  0  0
   -2.0486    0.8000   -0.3396 C   0  0  1  0  0  0  0  0  0  0  0  0
    0.7368    1.1098   -0.7043 H   0  0  0  0  0  0  0  0  0  0  0  0
    0.0025    0.2684    1.5515 H   0  0  0  0  0  0  0  0  0  0  0  0
    2.7590   -0.8736    0.4781 H   0  0  0  0  0  0  0  0  0  0  0  0
    3.2465    1.4995   -1.3839 H   0  0  0  0  0  0  0  0  0  0  0  0
    3.4621   -0.2114   -1.8205 H   0  0  0  0  0  0  0  0  0  0  0  0
    4.4866    0.5444   -0.5851 H   0  0  0  0  0  0  0  0  0  0  0  0
   -1.4803    1.2263   -1.1696 H   1  0  0  0  0  0  0  0  0  0  0  0
    0.0707   -0.6224   -1.9387 H   0  0  0  0  0  0  0  0  0  0  0  0
    0.4987   -2.2587    0.3701 H   0  0  0  0  0  0  0  0  0  0  0  0
    3.5183    1.0155    1.4860 H   0  0  0  0  0  0  0  0  0  0  0  0
   -1.2384    2.0690    0.8877 H   0  0  0  0  0  0  0  0  0  0  0  0
  1 12  1  0  0  0  0
  2  7  1  0  0  0  0
  2 20  1  0  0  0  0
  3  8  1  0  0  0  0
  3 21  1  0  0  0  0
  4  9  1  0  0  0  0
  4 22  1  0  0  0  0
  5 10  2  0  0  0  0
  6 12  1  0  0  0  0
  6 23  1  0  0  0  0
  7  8  1  0  0  0  0
  7  9  1  0  0  0  0
  7 13  1  0  0  0  0
  8 10  1  0  0  0  0
  8 14  1  0  0  0  0
  9 11  1  0  0  0  0
  9 15  1  0  0  0  0
 10 12  1  0  0  0  0
 11 16  1  0  0  0  0
 11 17  1  0  0  0  0
 11 18  1  0  0  0  0
 12 19  1  0  0  0  0
M  ISO  1  19   2
M  END
> <PUBCHEM_COMPOUND_CID>
134694404

> <PUBCHEM_CONFORMER_RMSD>
0.6

> <PUBCHEM_CONFORMER_DIVERSEORDER>
2
25
176
99
77
178
217
9
20
133
125
151
211
31
56
154
156
165
98
60
73
200
19
197
208
15
173
129
181
119
188
59
72
174
54
198
209
101
22
199
130
6
169
33
216
166
164
108
136
49
190
120
67
127
147
107
13
183
201
177
88
74
103
212
157
131
152
12
84
214
38
141
202
95
5
167
168
71
34
196
112
44
135
145
11
150
64
122
27
3
144
8
159
36
80
70
215
50
138
186
195
175
210
118
90
213
163
179
1
192
109
83
10
203
155
104
207
124
148
149
92
100
110
102
45
57
204
137
189
4
187
105
96
115
48
68
23
116
146
86
79
43
206
52
106
35
153
143
134
218
171
132
32
113
14
87
18
160
128
7
63
140
82
66
30
62
139
17
194
205
58
182
142
55
193
24
162
21
91
78
111
42
65
75
117
29
47
191
26
123
46
39
97
180
161
69
41
16
37
28
184
94
172
158
81
61
93
121
126
185
85
76
170
114
89
40
51
53

> <PUBCHEM_MMFF94_PARTIAL_CHARGES>
15
1 -0.34
10 0.45
12 0.68
2 -0.68
20 0.4
21 0.4
22 0.4
23 0.4
3 -0.68
4 -0.68
5 -0.57
6 -0.68
7 0.28
8 0.34
9 0.28

> <PUBCHEM_EFFECTIVE_ROTOR_COUNT>
4

> <PUBCHEM_PHARMACOPHORE_FEATURES>
9
1 2 acceptor
1 2 donor
1 3 acceptor
1 3 donor
1 4 acceptor
1 4 donor
1 5 acceptor
1 6 acceptor
1 6 donor

> <PUBCHEM_HEAVY_ATOM_COUNT>
12

> <PUBCHEM_ATOM_DEF_STEREO_COUNT>
3

> <PUBCHEM_ATOM_UDEF_STEREO_COUNT>
1

> <PUBCHEM_BOND_DEF_STEREO_COUNT>
0

> <PUBCHEM_BOND_UDEF_STEREO_COUNT>
0

> <PUBCHEM_ISOTOPIC_ATOM_COUNT>
1

> <PUBCHEM_COMPONENT_COUNT>
1

> <PUBCHEM_CACTVS_TAUTO_COUNT>
8

> <PUBCHEM_CONFORMER_ID>
0807460400000002

> <PUBCHEM_MMFF94_ENERGY>
12.3861

> <PUBCHEM_FEATURE_SELFOVERLAP>
45.689

> <PUBCHEM_SHAPE_FINGERPRINT>
10219947 1 16370442233145539358
12138202 97 18412265051262644351
12423570 1 17197119069793782594
12716758 59 18413673508488466402
12897270 3 17704071797913364420
12932764 1 18201163247141581962
13839132 238 18340496564331756196
14325111 11 18040154032771384118
14390081 3 18342452629930139921
15310529 11 16988557957903311269
15775835 57 17676206874725460069
16945 1 18272652367623579562
18534176 82 18342742952713534231
19973954 147 18271247226260573112
20653085 51 18059585697395143416
20828058 34 18334859411171141701
230 275 18188210896765210788
23211744 41 18272372035271940306
23402539 116 18343009000331033805
305870 269 17822290128554090618
3248919 1 17531522187298259378
5084963 1 18270411614713673498
57812782 119 17988641913136627132

> <PUBCHEM_SHAPE_MULTIPOLES>
210.33
4.87
1.41
1.15
1.03
0.22
0.06
-1.85
0.81
-0.75
-0.34
0.48
-0.02
0.02

> <PUBCHEM_SHAPE_SELFOVERLAP>
403.4

> <PUBCHEM_SHAPE_VOLUME>
128.4

> <PUBCHEM_COORDINATE_TYPE>
2
5
10