134820615
  -OEChem-05072106003D

 30 29  0     1  0  0  0  0  0999 V2000
    1.0078   -1.5119   -0.8589 O   0  0  0  0  0  0  0  0  0  0  0  0
    0.2226   -0.9883    1.8420 O   0  0  0  0  0  0  0  0  0  0  0  0
    2.3016    1.5492    0.6103 O   0  0  0  0  0  0  0  0  0  0  0  0
   -3.2932   -0.4925   -1.3122 O   0  0  0  0  0  0  0  0  0  0  0  0
   -2.0525   -1.6330    0.6482 O   0  0  0  0  0  0  0  0  0  0  0  0
    4.7100    0.3866   -0.2776 O   0  0  0  0  0  0  0  0  0  0  0  0
    0.9366   -0.1845   -0.3179 C   0  0  1  0  0  0  0  0  0  0  0  0
   -0.1536   -0.1484    0.7613 C   0  0  1  0  0  0  0  0  0  0  0  0
    2.3438    0.1799    0.1893 C   0  0  1  0  0  0  0  0  0  0  0  0
   -1.4942   -0.6259    0.2103 C   0  0  0  0  0  0  0  0  0  0  0  0
   -2.1112    0.1920   -0.9153 C   0  0  2  0  0  0  0  0  0  0  0  0
    3.4558    0.0340   -0.8482 C   0  0  0  0  0  0  0  0  0  0  0  0
   -2.4710    1.6072   -0.4662 C   0  0  0  0  0  0  0  0  0  0  0  0
   -3.4023    1.6354    0.7348 C   0  0  0  0  0  0  0  0  0  0  0  0
    0.6760    0.4959   -1.1368 H   0  0  0  0  0  0  0  0  0  0  0  0
   -0.2831    0.8574    1.1688 H   0  0  0  0  0  0  0  0  0  0  0  0
    2.6193   -0.4244    1.0620 H   0  0  0  0  0  0  0  0  0  0  0  0
   -1.4415    0.2172   -1.7787 H   0  0  0  0  0  0  0  0  0  0  0  0
    3.2790    0.7046   -1.6958 H   0  0  0  0  0  0  0  0  0  0  0  0
    3.5252   -0.9950   -1.2133 H   0  0  0  0  0  0  0  0  0  0  0  0
   -2.9743    2.1219   -1.2939 H   0  0  0  0  0  0  0  0  0  0  0  0
   -1.5654    2.1789   -0.2358 H   0  0  0  0  0  0  0  0  0  0  0  0
    0.1963   -1.6694   -1.3701 H   0  0  0  0  0  0  0  0  0  0  0  0
    0.4144   -1.8708    1.4809 H   0  0  0  0  0  0  0  0  0  0  0  0
   -2.9328    1.2010    1.6226 H   0  0  0  0  0  0  0  0  0  0  0  0
   -3.6670    2.6702    0.9763 H   0  0  0  0  0  0  0  0  0  0  0  0
   -4.3319    1.0931    0.5354 H   0  0  0  0  0  0  0  0  0  0  0  0
    1.7837    1.5900    1.4317 H   0  0  0  0  0  0  0  0  0  0  0  0
   -3.0233   -1.3428   -1.6996 H   0  0  0  0  0  0  0  0  0  0  0  0
    5.3800    0.2826   -0.9747 H   0  0  0  0  0  0  0  0  0  0  0  0
  1  7  1  0  0  0  0
  1 23  1  0  0  0  0
  2  8  1  0  0  0  0
  2 24  1  0  0  0  0
  3  9  1  0  0  0  0
  3 28  1  0  0  0  0
  4 11  1  0  0  0  0
  4 29  1  0  0  0  0
  5 10  2  0  0  0  0
  6 12  1  0  0  0  0
  6 30  1  0  0  0  0
  7  8  1  0  0  0  0
  7  9  1  0  0  0  0
  7 15  1  0  0  0  0
  8 10  1  0  0  0  0
  8 16  1  0  0  0  0
  9 12  1  0  0  0  0
  9 17  1  0  0  0  0
 10 11  1  0  0  0  0
 11 13  1  0  0  0  0
 11 18  1  0  0  0  0
 12 19  1  0  0  0  0
 12 20  1  0  0  0  0
 13 14  1  0  0  0  0
 13 21  1  0  0  0  0
 13 22  1  0  0  0  0
 14 25  1  0  0  0  0
 14 26  1  0  0  0  0
 14 27  1  0  0  0  0
M  END
> <PUBCHEM_COMPOUND_CID>
134820615

> <PUBCHEM_CONFORMER_RMSD>
1

> <PUBCHEM_CONFORMER_DIVERSEORDER>
1
48
29
74
9
60
30
89
3
83
32
36
12
105
33
61
38
51
7
75
64
23
43
106
2
59
68
58
54
39
98
14
63
81
44
22
8
11
99
65
76
82
102
73
4
16
6
84
70
103
79
95
77
87
107
37
15
94
20
86
101
93
50
66
100
57
41
91
55
25
47
67
24
62
92
5
40
17
42
88
97
78
53
56
31
104
35
90
96
46
19
10
71
52
80
85
27
49
21
69
26
34
45
13
28
18
72

> <PUBCHEM_MMFF94_PARTIAL_CHARGES>
17
1 -0.68
10 0.45
11 0.34
12 0.28
2 -0.68
23 0.4
24 0.4
28 0.4
29 0.4
3 -0.68
30 0.4
4 -0.68
5 -0.57
6 -0.68
7 0.28
8 0.34
9 0.28

> <PUBCHEM_EFFECTIVE_ROTOR_COUNT>
6

> <PUBCHEM_PHARMACOPHORE_FEATURES>
12
1 1 acceptor
1 1 donor
1 14 hydrophobe
1 2 acceptor
1 2 donor
1 3 acceptor
1 3 donor
1 4 acceptor
1 4 donor
1 5 acceptor
1 6 acceptor
1 6 donor

> <PUBCHEM_HEAVY_ATOM_COUNT>
14

> <PUBCHEM_ATOM_DEF_STEREO_COUNT>
3

> <PUBCHEM_ATOM_UDEF_STEREO_COUNT>
1

> <PUBCHEM_BOND_DEF_STEREO_COUNT>
0

> <PUBCHEM_BOND_UDEF_STEREO_COUNT>
0

> <PUBCHEM_ISOTOPIC_ATOM_COUNT>
0

> <PUBCHEM_COMPONENT_COUNT>
1

> <PUBCHEM_CACTVS_TAUTO_COUNT>
12

> <PUBCHEM_CONFORMER_ID>
0809330700000001

> <PUBCHEM_MMFF94_ENERGY>
16.9535

> <PUBCHEM_FEATURE_SELFOVERLAP>
60.934

> <PUBCHEM_SHAPE_FINGERPRINT>
12251169 10 11674882160874487293
124424 183 18335136497339901314
12491281 212 18272091539563590857
12897270 3 18272927245535759439
12932764 1 18411983602303618050
13380535 21 18114750338880865315
13839132 238 18261111829175077871
14943859 89 17968100802320073672
15309172 13 16370445548833885714
15775835 57 17967812695935080333
16945 1 18334570269688181779
18186145 218 17894635812224468886
18534176 82 18334857268241112127
19837323 101 18411706456917490875
200 152 15841552947024947132
20112054 13 14923937938230567974
20281407 28 11024108728948247180
20361792 2 13758348981740419153
20645476 183 17203602658145404445
20645477 56 18335146383864266268
20645477 70 17346045450755396662
20653085 51 18342179985369299088
20671657 53 13614229382796350073
20711985 327 11383826086941697626
20711985 344 13829577449664421347
20828058 19 9150872967972299969
21256008 23 13551195489641517718
21501502 16 18340480054667575703
23402539 116 18335414720842155647
23402655 69 18129940062249394053
23500284 214 18335148548554241761
23557571 272 18050555550093119371
25 1 18270404875593572309
305870 269 17532366474488660115
42627469 27 17313108531683078200
57812782 119 18341328989513477718
58143232 49 10882273975302085241
6333449 129 18334296487208972735
81228 2 17171251911962507579
9882013 296 12035741915586200720

> <PUBCHEM_SHAPE_MULTIPOLES>
252.9
6.59
1.54
1.21
4.19
0.14
0.17
2.43
-1.35
-0.93
0.22
-0.36
-0.24
-0.01

> <PUBCHEM_SHAPE_SELFOVERLAP>
483.72

> <PUBCHEM_SHAPE_VOLUME>
154.1

> <PUBCHEM_COORDINATE_TYPE>
2
5
10