137553937
  -OEChem-05072106003D

 24 24  0     1  0  0  0  0  0999 V2000
    0.5939    1.0808   -0.6100 O   0  0  0  0  0  0  0  0  0  0  0  0
    0.2331   -1.7529   -1.3342 O   0  0  0  0  0  0  0  0  0  0  0  0
    1.0234    0.3023    1.5851 O   0  0  0  0  0  0  0  0  0  0  0  0
   -1.6817   -0.6507    1.5646 O   0  0  0  0  0  0  0  0  0  0  0  0
   -3.0592    0.8295   -0.3330 O   0  0  0  0  0  0  0  0  0  0  0  0
    3.2497    0.7770   -0.0236 O   0  0  0  0  0  0  0  0  0  0  0  0
    0.0669   -1.2403   -0.0127 C   0  0  1  0  0  0  0  0  0  0  0  0
    1.0124   -0.0327    0.1938 C   0  0  1  0  0  0  0  0  0  0  0  0
   -1.4069   -0.8575    0.1800 C   0  0  2  0  0  0  0  0  0  0  0  0
   -1.7383    0.3988   -0.6297 C   0  0  2  0  0  0  0  0  0  0  0  0
   -0.7394    1.5145   -0.3526 C   0  0  0  0  0  0  0  0  0  0  0  0
    2.4462   -0.3686   -0.2277 C   1  0  0  0  0  0  0  0  0  0  0  0
    0.3386   -2.0331    0.6953 H   0  0  0  0  0  0  0  0  0  0  0  0
   -2.0668   -1.6683   -0.1514 H   0  0  0  0  0  0  0  0  0  0  0  0
   -1.6985    0.1435   -1.6959 H   0  0  0  0  0  0  0  0  0  0  0  0
   -0.9467    2.3701   -1.0048 H   0  0  0  0  0  0  0  0  0  0  0  0
   -0.8243    1.8902    0.6742 H   0  0  0  0  0  0  0  0  0  0  0  0
    2.5070   -0.6265   -1.2895 H   0  0  0  0  0  0  0  0  0  0  0  0
    2.8541   -1.1859    0.3759 H   0  0  0  0  0  0  0  0  0  0  0  0
   -0.3374   -2.5358   -1.4191 H   0  0  0  0  0  0  0  0  0  0  0  0
    1.8629    0.7512    1.7812 H   0  0  0  0  0  0  0  0  0  0  0  0
   -1.4718   -1.4774    2.0314 H   0  0  0  0  0  0  0  0  0  0  0  0
   -3.2364    1.6226   -0.8669 H   0  0  0  0  0  0  0  0  0  0  0  0
    4.1556    0.5444   -0.2896 H   0  0  0  0  0  0  0  0  0  0  0  0
  1  8  1  0  0  0  0
  1 11  1  0  0  0  0
  2  7  1  0  0  0  0
  2 20  1  0  0  0  0
  3  8  1  0  0  0  0
  3 21  1  0  0  0  0
  4  9  1  0  0  0  0
  4 22  1  0  0  0  0
  5 10  1  0  0  0  0
  5 23  1  0  0  0  0
  6 12  1  0  0  0  0
  6 24  1  0  0  0  0
  7  8  1  0  0  0  0
  7  9  1  0  0  0  0
  7 13  1  0  0  0  0
  8 12  1  0  0  0  0
  9 10  1  0  0  0  0
  9 14  1  0  0  0  0
 10 11  1  0  0  0  0
 10 15  1  0  0  0  0
 11 16  1  0  0  0  0
 11 17  1  0  0  0  0
 12 18  1  0  0  0  0
 12 19  1  0  0  0  0
M  ISO  1  12  13
M  END
> <PUBCHEM_COMPOUND_CID>
137553937

> <PUBCHEM_CONFORMER_RMSD>
0.6

> <PUBCHEM_CONFORMER_DIVERSEORDER>
1
5
9
6
4
2
7
3
8

> <PUBCHEM_MMFF94_PARTIAL_CHARGES>
17
1 -0.56
10 0.28
11 0.28
12 0.28
2 -0.68
20 0.4
21 0.4
22 0.4
23 0.4
24 0.4
3 -0.68
4 -0.68
5 -0.68
6 -0.68
7 0.28
8 0.56
9 0.28

> <PUBCHEM_EFFECTIVE_ROTOR_COUNT>
2.2

> <PUBCHEM_PHARMACOPHORE_FEATURES>
12
1 1 acceptor
1 2 acceptor
1 2 donor
1 3 acceptor
1 3 donor
1 4 acceptor
1 4 donor
1 5 acceptor
1 5 donor
1 6 acceptor
1 6 donor
6 1 7 8 9 10 11 rings

> <PUBCHEM_HEAVY_ATOM_COUNT>
12

> <PUBCHEM_ATOM_DEF_STEREO_COUNT>
3

> <PUBCHEM_ATOM_UDEF_STEREO_COUNT>
1

> <PUBCHEM_BOND_DEF_STEREO_COUNT>
0

> <PUBCHEM_BOND_UDEF_STEREO_COUNT>
0

> <PUBCHEM_ISOTOPIC_ATOM_COUNT>
1

> <PUBCHEM_COMPONENT_COUNT>
1

> <PUBCHEM_CACTVS_TAUTO_COUNT>
-1

> <PUBCHEM_CONFORMER_ID>
0832E81100000001

> <PUBCHEM_MMFF94_ENERGY>
31.7089

> <PUBCHEM_FEATURE_SELFOVERLAP>
60.966

> <PUBCHEM_SHAPE_FINGERPRINT>
12423570 1 18123493792715243478
13024252 1 17023177271046151554
15775835 57 18131626781430858598
16945 1 17894912914476085764
21040471 1 18338783542506222559
23235685 24 18335976485141815125
241688 4 17327736202271525561
2748010 2 18263082291456527557
29004967 10 18188219791974751418
369184 2 16732976544366802216
5084963 1 18199471141469319355
528886 8 18412257333195590741
68250623 7 17534084117698874029

> <PUBCHEM_SHAPE_MULTIPOLES>
211.74
3.47
1.46
1.13
0.87
0.05
-0.3
-0.92
0.01
-0.21
0.32
-0.09
0.29
0.33

> <PUBCHEM_SHAPE_SELFOVERLAP>
425.677

> <PUBCHEM_SHAPE_VOLUME>
122.6

> <PUBCHEM_COORDINATE_TYPE>
2
5
10