139088453
  -OEChem-05072106003D

 42 42  0     1  0  0  0  0  0999 V2000
   -4.0990    1.4922    0.1191 O   0  0  0  0  0  0  0  0  0  0  0  0
   -2.5796    0.2741    2.0235 O   0  0  0  0  0  0  0  0  0  0  0  0
   -4.7084   -1.1595    0.8947 O   0  0  0  0  0  0  0  0  0  0  0  0
   -0.7456    2.0694    1.3774 O   0  0  0  0  0  0  0  0  0  0  0  0
   -4.5028   -3.0236   -1.4701 O   0  0  0  0  0  0  0  0  0  0  0  0
    5.2122   -1.7411    0.3062 O   0  0  0  0  0  0  0  0  0  0  0  0
    1.0162    1.7539   -0.7064 N   0  0  3  0  0  0  0  0  0  0  0  0
   -3.2906    0.3848   -0.3003 C   0  0  1  0  0  0  0  0  0  0  0  0
   -2.1221    0.2166    0.6806 C   0  0  1  0  0  0  0  0  0  0  0  0
   -4.2074   -0.8483   -0.4109 C   0  0  1  0  0  0  0  0  0  0  0  0
   -1.0325    1.2707    0.4848 C   0  0  0  0  0  0  0  0  0  0  0  0
   -0.3364    1.2816   -0.8618 C   0  0  0  0  0  0  0  0  0  0  0  0
   -3.5393   -2.1011   -0.9764 C   0  0  0  0  0  0  0  0  0  0  0  0
    2.0765    0.8713   -0.4494 C   0  0  0  0  0  0  0  0  0  0  0  0
    1.2775    3.1902   -0.8296 C   0  0  0  0  0  0  0  0  0  0  0  0
    3.3887    1.2604   -0.7185 C   0  0  0  0  0  0  0  0  0  0  0  0
    1.8180   -0.3955    0.0740 C   0  0  0  0  0  0  0  0  0  0  0  0
    4.4424    0.3826   -0.4646 C   0  0  0  0  0  0  0  0  0  0  0  0
    2.8718   -1.2735    0.3280 C   0  0  0  0  0  0  0  0  0  0  0  0
    4.1839   -0.8844    0.0587 C   0  0  0  0  0  0  0  0  0  0  0  0
    4.8765   -3.0206    0.8412 C   0  0  0  0  0  0  0  0  0  0  0  0
   -2.9268    0.6183   -1.3068 H   0  0  0  0  0  0  0  0  0  0  0  0
   -1.6349   -0.7541    0.5457 H   0  0  0  0  0  0  0  0  0  0  0  0
   -5.0852   -0.5955   -1.0182 H   0  0  0  0  0  0  0  0  0  0  0  0
   -0.9065    1.9481   -1.5202 H   0  0  0  0  0  0  0  0  0  0  0  0
   -0.3742    0.2891   -1.3247 H   0  0  0  0  0  0  0  0  0  0  0  0
   -2.9506   -2.6156   -0.2100 H   0  0  0  0  0  0  0  0  0  0  0  0
   -2.8864   -1.8375   -1.8146 H   0  0  0  0  0  0  0  0  0  0  0  0
   -3.5357    2.2847    0.1111 H   0  0  0  0  0  0  0  0  0  0  0  0
   -3.0711    1.1059    2.1342 H   0  0  0  0  0  0  0  0  0  0  0  0
    0.3439    3.7635   -0.7980 H   0  0  0  0  0  0  0  0  0  0  0  0
    1.7634    3.4154   -1.7848 H   0  0  0  0  0  0  0  0  0  0  0  0
    1.8993    3.5534   -0.0038 H   0  0  0  0  0  0  0  0  0  0  0  0
   -5.1379   -0.3581    1.2398 H   0  0  0  0  0  0  0  0  0  0  0  0
    3.6341    2.2317   -1.1371 H   0  0  0  0  0  0  0  0  0  0  0  0
    0.8173   -0.7394    0.3115 H   0  0  0  0  0  0  0  0  0  0  0  0
   -4.0137   -3.7886   -1.8183 H   0  0  0  0  0  0  0  0  0  0  0  0
    5.4626    0.6896   -0.6786 H   0  0  0  0  0  0  0  0  0  0  0  0
    2.6010   -2.2409    0.7370 H   0  0  0  0  0  0  0  0  0  0  0  0
    5.8137   -3.5708    0.9751 H   0  0  0  0  0  0  0  0  0  0  0  0
    4.4125   -2.9343    1.8296 H   0  0  0  0  0  0  0  0  0  0  0  0
    4.2626   -3.6001    0.1434 H   0  0  0  0  0  0  0  0  0  0  0  0
  1  8  1  0  0  0  0
  1 29  1  0  0  0  0
  2  9  1  0  0  0  0
  2 30  1  0  0  0  0
  3 10  1  0  0  0  0
  3 34  1  0  0  0  0
  4 11  2  0  0  0  0
  5 13  1  0  0  0  0
  5 37  1  0  0  0  0
  6 20  1  0  0  0  0
  6 21  1  0  0  0  0
  7 12  1  0  0  0  0
  7 14  1  0  0  0  0
  7 15  1  0  0  0  0
  8  9  1  0  0  0  0
  8 10  1  0  0  0  0
  8 22  1  0  0  0  0
  9 11  1  0  0  0  0
  9 23  1  0  0  0  0
 10 13  1  0  0  0  0
 10 24  1  0  0  0  0
 11 12  1  0  0  0  0
 12 25  1  0  0  0  0
 12 26  1  0  0  0  0
 13 27  1  0  0  0  0
 13 28  1  0  0  0  0
 14 16  2  0  0  0  0
 14 17  1  0  0  0  0
 15 31  1  0  0  0  0
 15 32  1  0  0  0  0
 15 33  1  0  0  0  0
 16 18  1  0  0  0  0
 16 35  1  0  0  0  0
 17 19  2  0  0  0  0
 17 36  1  0  0  0  0
 18 20  2  0  0  0  0
 18 38  1  0  0  0  0
 19 20  1  0  0  0  0
 19 39  1  0  0  0  0
 21 40  1  0  0  0  0
 21 41  1  0  0  0  0
 21 42  1  0  0  0  0
M  END
> <PUBCHEM_COMPOUND_CID>
139088453

> <PUBCHEM_CONFORMER_RMSD>
1

> <PUBCHEM_CONFORMER_DIVERSEORDER>
1
67
127
71
132
91
37
142
139
75
34
9
105
65
39
19
124
94
50
61
86
60
100
27
144
109
99
32
126
2
64
40
56
8
145
138
68
106
57
119
123
17
110
101
141
66
96
33
4
135
43
69
44
81
53
107
12
7
48
78
102
117
15
59
134
89
92
74
58
10
118
55
115
137
98
22
62
87
72
52
5
120
45
38
54
16
51
103
133
18
24
25
36
73
31
14
90
63
28
129
11
49
79
13
21
6
143
47
128
76
97
35
140
83
41
30
3
104
136
84
85
42
80
26
116
121
46
125
77
112
114
20
70
131
29
111
23
93
82
122
113
88
130
95
108

> <PUBCHEM_MMFF94_PARTIAL_CHARGES>
29
1 -0.68
10 0.28
11 0.45
12 0.43
13 0.28
14 0.1
15 0.37
16 -0.15
17 -0.15
18 -0.15
19 -0.15
2 -0.68
20 0.08
21 0.28
29 0.4
3 -0.68
30 0.4
34 0.4
35 0.15
36 0.15
37 0.4
38 0.15
39 0.15
4 -0.57
5 -0.68
6 -0.36
7 -0.84
8 0.28
9 0.34

> <PUBCHEM_EFFECTIVE_ROTOR_COUNT>
8

> <PUBCHEM_PHARMACOPHORE_FEATURES>
12
1 1 acceptor
1 1 donor
1 2 acceptor
1 2 donor
1 3 acceptor
1 3 donor
1 4 acceptor
1 5 acceptor
1 5 donor
1 6 acceptor
1 7 cation
6 14 16 17 18 19 20 rings

> <PUBCHEM_HEAVY_ATOM_COUNT>
21

> <PUBCHEM_ATOM_DEF_STEREO_COUNT>
3

> <PUBCHEM_ATOM_UDEF_STEREO_COUNT>
0

> <PUBCHEM_BOND_DEF_STEREO_COUNT>
0

> <PUBCHEM_BOND_UDEF_STEREO_COUNT>
0

> <PUBCHEM_ISOTOPIC_ATOM_COUNT>
0

> <PUBCHEM_COMPONENT_COUNT>
1

> <PUBCHEM_CACTVS_TAUTO_COUNT>
-1

> <PUBCHEM_CONFORMER_ID>
084A524500000001

> <PUBCHEM_MMFF94_ENERGY>
69.7309

> <PUBCHEM_FEATURE_SELFOVERLAP>
60.935

> <PUBCHEM_SHAPE_FINGERPRINT>
10062212 137 18412266138432370523
10622 236 18269818943497971983
11118852 30 18131075943512526966
11159736 12 18412541032960261470
11578080 2 18270943722339345569
11796584 16 18201723929093574580
12107183 9 18266746766454931545
12390115 104 11239414069781844514
12410352 35 18413106160562445606
12596599 1 18129395833799745294
12596602 18 17846498158284099768
12633257 1 17346887736206311003
13004483 165 18264203608654611080
13167823 11 18409168818039376111
13544653 18 18114472179908992308
13899415 180 17894618271256571372
14117953 113 18124030131114564063
14576447 43 18337954592733544524
14787075 74 17914338137155745000
15196674 1 18334297552344972872
15352361 1 18261674775155415018
15415430 10 18411978061769321958
15537594 2 18339372953653246191
15880784 105 18273213084748025210
17357779 13 17313103046904457148
17492 89 18335984289366683483
18186145 218 15574719122567950501
18222031 100 18336266752491314166
19141452 34 18339925887948641901
200 152 18408606950396815832
20028762 73 18342733005950000966
20626108 58 18339349851023914016
20645477 70 17749676306355474880
20671657 53 18334020492384172332
21049683 118 15478493005117179955
21250096 35 18410856546760552248
21503847 285 9439139662177634060
221490 88 18043822084886377353
22646028 28 18412267250354146511
23402539 116 18336263444939416866
23557571 272 16414657976523402281
23559900 14 18412535522512413768
2871803 45 17603869953811420552
314194 84 18335707177875908786
3286 77 18201152166516329392
44062 13 18335416838334469957
46194498 28 16226901114862492975
463206 1 18187647981293367290
5104073 3 18341898476011875152
559249 180 18337388228471046129
602551 16 16558465391674580646
633830 44 16805604776471431133
7064713 232 17845938428907706434
76465 3 18341326781847527141
88748 71 18337111280200578471
9709674 26 18113907103677662769

> <PUBCHEM_SHAPE_MULTIPOLES>
391.97
11.29
3.19
1.21
0.07
0.64
-0.25
9.43
0.29
0.91
0.6
-1.05
0.1
-2.36

> <PUBCHEM_SHAPE_SELFOVERLAP>
794.576

> <PUBCHEM_SHAPE_VOLUME>
228.5

> <PUBCHEM_COORDINATE_TYPE>
2
5
10