14299935
  -OEChem-05072106003D

 21 21  0     1  0  0  0  0  0999 V2000
   -0.8670    1.1047    0.3194 O   0  0  0  0  0  0  0  0  0  0  0  0
    0.0313   -1.5171    1.1322 O   0  0  0  0  0  0  0  0  0  0  0  0
    2.3523   -1.4212   -0.3451 O   0  0  0  0  0  0  0  0  0  0  0  0
   -3.4846    0.4076   -0.1381 O   0  0  0  0  0  0  0  0  0  0  0  0
    2.5679    1.1785    0.4626 O   0  0  0  0  0  0  0  0  0  0  0  0
   -0.0405   -1.1141   -0.2374 C   0  0  1  0  0  0  0  0  0  0  0  0
   -1.1644   -0.0834   -0.4271 C   0  0  1  0  0  0  0  0  0  0  0  0
    1.3043   -0.5349   -0.6758 C   0  0  1  0  0  0  0  0  0  0  0  0
    1.5001    0.8247   -0.0319 C   0  0  0  0  0  0  0  0  0  0  0  0
    0.3122    1.7573   -0.1209 C   0  0  0  0  0  0  0  0  0  0  0  0
   -2.5115   -0.6020    0.0620 C   0  0  0  0  0  0  0  0  0  0  0  0
   -0.2585   -2.0191   -0.8166 H   0  0  0  0  0  0  0  0  0  0  0  0
   -1.2556    0.1976   -1.4847 H   0  0  0  0  0  0  0  0  0  0  0  0
    1.3084   -0.3867   -1.7621 H   0  0  0  0  0  0  0  0  0  0  0  0
    0.4842    2.6201    0.5290 H   0  0  0  0  0  0  0  0  0  0  0  0
    0.1959    2.1110   -1.1505 H   0  0  0  0  0  0  0  0  0  0  0  0
   -2.4972   -0.8345    1.1317 H   0  0  0  0  0  0  0  0  0  0  0  0
   -2.8168   -1.4961   -0.4895 H   0  0  0  0  0  0  0  0  0  0  0  0
    0.7693   -2.1456    1.2114 H   0  0  0  0  0  0  0  0  0  0  0  0
    3.1732   -1.0564   -0.7173 H   0  0  0  0  0  0  0  0  0  0  0  0
   -3.1963    1.1957    0.3535 H   0  0  0  0  0  0  0  0  0  0  0  0
  1  7  1  0  0  0  0
  1 10  1  0  0  0  0
  2  6  1  0  0  0  0
  2 19  1  0  0  0  0
  3  8  1  0  0  0  0
  3 20  1  0  0  0  0
  4 11  1  0  0  0  0
  4 21  1  0  0  0  0
  5  9  2  0  0  0  0
  6  7  1  0  0  0  0
  6  8  1  0  0  0  0
  6 12  1  0  0  0  0
  7 11  1  0  0  0  0
  7 13  1  0  0  0  0
  8  9  1  0  0  0  0
  8 14  1  0  0  0  0
  9 10  1  0  0  0  0
 10 15  1  0  0  0  0
 10 16  1  0  0  0  0
 11 17  1  0  0  0  0
 11 18  1  0  0  0  0
M  END
> <PUBCHEM_COMPOUND_CID>
14299935

> <PUBCHEM_CONFORMER_RMSD>
0.4

> <PUBCHEM_CONFORMER_DIVERSEORDER>
3
35
44
46
31
17
29
1
8
20
19
26
41
42
45
47
21
13
27
16
32
37
48
40
25
2
43
10
12
30
38
39
28
4
5
6
7
18
36
24
14
15
23
22
11
33
34
9

> <PUBCHEM_MMFF94_PARTIAL_CHARGES>
14
1 -0.56
10 0.34
11 0.28
19 0.4
2 -0.68
20 0.4
21 0.4
3 -0.68
4 -0.68
5 -0.57
6 0.28
7 0.28
8 0.34
9 0.45

> <PUBCHEM_EFFECTIVE_ROTOR_COUNT>
2

> <PUBCHEM_PHARMACOPHORE_FEATURES>
9
1 1 acceptor
1 2 acceptor
1 2 donor
1 3 acceptor
1 3 donor
1 4 acceptor
1 4 donor
1 5 acceptor
6 1 6 7 8 9 10 rings

> <PUBCHEM_HEAVY_ATOM_COUNT>
11

> <PUBCHEM_ATOM_DEF_STEREO_COUNT>
0

> <PUBCHEM_ATOM_UDEF_STEREO_COUNT>
3

> <PUBCHEM_BOND_DEF_STEREO_COUNT>
0

> <PUBCHEM_BOND_UDEF_STEREO_COUNT>
0

> <PUBCHEM_ISOTOPIC_ATOM_COUNT>
0

> <PUBCHEM_COMPONENT_COUNT>
1

> <PUBCHEM_CACTVS_TAUTO_COUNT>
7

> <PUBCHEM_CONFORMER_ID>
00DA331F00000003

> <PUBCHEM_MMFF94_ENERGY>
19.1086

> <PUBCHEM_FEATURE_SELFOVERLAP>
45.696

> <PUBCHEM_SHAPE_FINGERPRINT>
12423570 1 11452287272897644322
14325111 11 18411699928366760373
161256 15 18339360760293690956
16945 1 18269556202993597221
18185500 45 17758679940602516522
21040471 1 18194405712785054756
23235685 24 18338230595605785436
23402655 69 18342726409243432413
23552423 10 18334863792032314047
241688 4 18266467494606201768
2748010 2 18339078185757964253
29004967 10 18339084885964760177
5084963 1 17968668120139190710
528886 8 18201714102182033807
63268167 104 18342462555794694385

> <PUBCHEM_SHAPE_MULTIPOLES>
197.03
3.67
1.69
0.77
2.03
0.1
-0.06
0.25
0.05
-0.66
-0.14
-0.07
-0.16
0.23

> <PUBCHEM_SHAPE_SELFOVERLAP>
395.067

> <PUBCHEM_SHAPE_VOLUME>
114.5

> <PUBCHEM_COORDINATE_TYPE>
2
5
10