14866064
  -OEChem-05072106003D

 25 24  0     1  0  0  0  0  0999 V2000
   -0.5089    0.2394    1.5293 O   0  0  0  0  0  0  0  0  0  0  0  0
    1.2594   -0.5287   -1.5572 O   0  0  0  0  0  0  0  0  0  0  0  0
   -1.4302   -2.0220    0.0625 O   0  0  0  0  0  0  0  0  0  0  0  0
   -3.6749   -0.7261    0.6018 O   0  0  0  0  0  0  0  0  0  0  0  0
   -4.4302    1.7191   -0.1640 O   0  0  0  0  0  0  0  0  0  0  0  0
    3.4908   -0.4101    0.1649 N   0  0  0  0  0  0  0  0  0  0  0  0
    4.4766    0.3395    0.0564 N   0  3  0  0  0  0  0  0  0  0  0  0
    5.3866    1.0197   -0.0451 N   0  5  0  0  0  0  0  0  0  0  0  0
   -0.3335    0.1265    0.1097 C   0  0  1  0  0  0  0  0  0  0  0  0
    1.0543   -0.4925   -0.1400 C   0  0  2  0  0  0  0  0  0  0  0  0
   -1.5003   -0.6980   -0.4465 C   0  0  2  0  0  0  0  0  0  0  0  0
    2.2255    0.2478    0.5056 C   0  0  0  0  0  0  0  0  0  0  0  0
   -2.8565   -0.1018   -0.0739 C   0  0  0  0  0  0  0  0  0  0  0  0
   -3.1587    1.2872   -0.6035 C   0  0  0  0  0  0  0  0  0  0  0  0
   -0.3580    1.1383   -0.3085 H   0  0  0  0  0  0  0  0  0  0  0  0
    1.0707   -1.5293    0.2181 H   0  0  0  0  0  0  0  0  0  0  0  0
   -1.4493   -0.7639   -1.5381 H   0  0  0  0  0  0  0  0  0  0  0  0
    2.1165    0.2674    1.5954 H   0  0  0  0  0  0  0  0  0  0  0  0
    2.2305    1.2865    0.1488 H   0  0  0  0  0  0  0  0  0  0  0  0
   -0.3274   -0.6282    1.9280 H   0  0  0  0  0  0  0  0  0  0  0  0
   -2.4148    2.0045   -0.2514 H   0  0  0  0  0  0  0  0  0  0  0  0
   -3.1591    1.2592   -1.6962 H   0  0  0  0  0  0  0  0  0  0  0  0
    2.1279   -0.9367   -1.7148 H   0  0  0  0  0  0  0  0  0  0  0  0
   -1.5107   -1.9813    1.0302 H   0  0  0  0  0  0  0  0  0  0  0  0
   -4.3886    1.8145    0.8029 H   0  0  0  0  0  0  0  0  0  0  0  0
  1  9  1  0  0  0  0
  1 20  1  0  0  0  0
  2 10  1  0  0  0  0
  2 23  1  0  0  0  0
  3 11  1  0  0  0  0
  3 24  1  0  0  0  0
  4 13  2  0  0  0  0
  5 14  1  0  0  0  0
  5 25  1  0  0  0  0
  6  7  2  0  0  0  0
  6 12  1  0  0  0  0
  7  8  2  0  0  0  0
  9 10  1  0  0  0  0
  9 11  1  0  0  0  0
  9 15  1  0  0  0  0
 10 12  1  0  0  0  0
 10 16  1  0  0  0  0
 11 13  1  0  0  0  0
 11 17  1  0  0  0  0
 12 18  1  0  0  0  0
 12 19  1  0  0  0  0
 13 14  1  0  0  0  0
 14 21  1  0  0  0  0
 14 22  1  0  0  0  0
M  CHG  2   7   1   8  -1
M  END
> <PUBCHEM_COMPOUND_CID>
14866064

> <PUBCHEM_CONFORMER_RMSD>
1

> <PUBCHEM_CONFORMER_DIVERSEORDER>
3
60
185
115
254
28
519
12
358
15
582
208
189
86
9
223
160
63
10
89
290
121
251
104
398
4
157
217
154
165
27
444
441
99
22
132
374
162
112
450
237
467
202
201
94
463
32
544
375
84
222
91
250
13
486
532
159
198
229
311
100
67
368
427
31
226
493
35
30
392
177
216
42
556
2
401
297
54
370
57
17
537
273
1
342
118
7
558
26
194
108
348
575
55
19
529
207
244
75
40
97
312
584
469
230
307
126
218
56
182
513
152
125
150
261
365
33
372
34
149
397
14
330
156
256
559
117
176
175
353
190
411
400
267
16
285

> <PUBCHEM_MMFF94_PARTIAL_CHARGES>
18
1 -0.68
10 0.28
11 0.34
12 0.25
13 0.45
14 0.34
2 -0.68
20 0.4
23 0.4
24 0.4
25 0.4
3 -0.68
4 -0.57
5 -0.68
6 -0.56
7 0.69
8 -0.37
9 0.28

> <PUBCHEM_EFFECTIVE_ROTOR_COUNT>
6

> <PUBCHEM_PHARMACOPHORE_FEATURES>
9
1 1 acceptor
1 1 donor
1 2 acceptor
1 2 donor
1 3 acceptor
1 3 donor
1 4 acceptor
1 5 acceptor
1 5 donor

> <PUBCHEM_HEAVY_ATOM_COUNT>
14

> <PUBCHEM_ATOM_DEF_STEREO_COUNT>
0

> <PUBCHEM_ATOM_UDEF_STEREO_COUNT>
3

> <PUBCHEM_BOND_DEF_STEREO_COUNT>
0

> <PUBCHEM_BOND_UDEF_STEREO_COUNT>
0

> <PUBCHEM_ISOTOPIC_ATOM_COUNT>
0

> <PUBCHEM_COMPONENT_COUNT>
1

> <PUBCHEM_CACTVS_TAUTO_COUNT>
10

> <PUBCHEM_CONFORMER_ID>
00E2D69000000003

> <PUBCHEM_MMFF94_ENERGY>
14.3505

> <PUBCHEM_FEATURE_SELFOVERLAP>
45.697

> <PUBCHEM_SHAPE_FINGERPRINT>
10014705 185 18341044194210769924
11062470 55 18408885139934359610
11987891 38 9223241753892182668
12500047 106 18411694409254923522
13675066 3 16805605815494333237
14252887 29 14851881418514706352
14943859 89 18040434356744371337
14993402 34 14907890574745051981
15501527 16 18411703179599293089
15775835 57 18114178588781891489
17834076 25 17561084704583305224
18186145 218 18130238042727017631
200 152 12751237008359165724
20201158 50 17561363967641425887
20645464 45 18272655657964342615
20645477 56 18408323284897074453
20645477 70 17203058400333111254
20671657 1 15792879873312537206
23402539 116 18412818092958407901
23402655 69 16988278664865133641
23557571 272 18343586265473814429
23559900 14 18272090440569181278
4175511 318 18131066056402417540
81539 233 17917715686799908950

> <PUBCHEM_SHAPE_MULTIPOLES>
243.82
8.95
1.33
0.94
7.66
0.05
0.01
-4.06
0.05
-1.23
0.09
-0.03
0.04
0.34

> <PUBCHEM_SHAPE_SELFOVERLAP>
468.341

> <PUBCHEM_SHAPE_VOLUME>
147

> <PUBCHEM_COORDINATE_TYPE>
2
5
10