15764506
  -OEChem-05072106003D

 30 30  0     1  0  0  0  0  0999 V2000
   -3.0338   -0.0216    0.0034 P   0  0  0  0  0  0  0  0  0  0  0  0
    0.1418   -0.7672   -0.3710 O   0  0  0  0  0  0  0  0  0  0  0  0
    2.7071    0.1122   -1.4236 O   0  0  0  0  0  0  0  0  0  0  0  0
    2.7067    2.4820    0.0066 O   0  0  0  0  0  0  0  0  0  0  0  0
    1.2560   -1.1733    1.6844 O   0  0  0  0  0  0  0  0  0  0  0  0
   -1.7076    0.6322   -0.6427 O   0  0  0  0  0  0  0  0  0  0  0  0
   -0.1559    2.8099    0.4027 O   0  0  0  0  0  0  0  0  0  0  0  0
    0.9264   -3.3824    0.0259 O   0  0  0  0  0  0  0  0  0  0  0  0
   -2.7797   -1.6139   -0.1197 O   0  0  0  0  0  0  0  0  0  0  0  0
   -4.1535    0.2649   -1.1277 O   0  0  0  0  0  0  0  0  0  0  0  0
   -3.3822    0.4682    1.3785 O   0  0  0  0  0  0  0  0  0  0  0  0
    2.3973    0.0790   -0.0289 C   0  0  1  0  0  0  0  0  0  0  0  0
    1.8238    1.4334    0.3978 C   0  0  2  0  0  0  0  0  0  0  0  0
    1.3960   -1.0522    0.2663 C   0  0  2  0  0  0  0  0  0  0  0  0
    0.4392    1.6644   -0.2061 C   0  0  1  0  0  0  0  0  0  0  0  0
   -0.4669    0.4562    0.0438 C   0  0  2  0  0  0  0  0  0  0  0  0
    1.8853   -2.3918   -0.2897 C   0  0  0  0  0  0  0  0  0  0  0  0
    3.3404   -0.0966    0.5032 H   0  0  0  0  0  0  0  0  0  0  0  0
    1.7533    1.5070    1.4885 H   0  0  0  0  0  0  0  0  0  0  0  0
    0.5127    1.8733   -1.2801 H   0  0  0  0  0  0  0  0  0  0  0  0
   -0.6938    0.3926    1.1155 H   0  0  0  0  0  0  0  0  0  0  0  0
    2.8341   -2.6886    0.1675 H   0  0  0  0  0  0  0  0  0  0  0  0
    1.9985   -2.3741   -1.3781 H   0  0  0  0  0  0  0  0  0  0  0  0
    3.3167    0.8558   -1.5684 H   0  0  0  0  0  0  0  0  0  0  0  0
    3.5719    2.3033    0.4130 H   0  0  0  0  0  0  0  0  0  0  0  0
    1.3839   -0.3159    2.1155 H   0  0  0  0  0  0  0  0  0  0  0  0
    0.4462    3.5601    0.2598 H   0  0  0  0  0  0  0  0  0  0  0  0
    0.0810   -3.1113   -0.3710 H   0  0  0  0  0  0  0  0  0  0  0  0
   -3.4372   -2.2306    0.2669 H   0  0  0  0  0  0  0  0  0  0  0  0
   -5.0894    0.0427   -0.9358 H   0  0  0  0  0  0  0  0  0  0  0  0
  1  6  1  0  0  0  0
  1  9  1  0  0  0  0
  1 10  1  0  0  0  0
  1 11  2  0  0  0  0
  2 14  1  0  0  0  0
  2 16  1  0  0  0  0
  3 12  1  0  0  0  0
  3 24  1  0  0  0  0
  4 13  1  0  0  0  0
  4 25  1  0  0  0  0
  5 14  1  0  0  0  0
  5 26  1  0  0  0  0
  6 16  1  0  0  0  0
  7 15  1  0  0  0  0
  7 27  1  0  0  0  0
  8 17  1  0  0  0  0
  8 28  1  0  0  0  0
  9 29  1  0  0  0  0
 10 30  1  0  0  0  0
 12 13  1  0  0  0  0
 12 14  1  0  0  0  0
 12 18  1  0  0  0  0
 13 15  1  0  0  0  0
 13 19  1  0  0  0  0
 14 17  1  0  0  0  0
 15 16  1  0  0  0  0
 15 20  1  0  0  0  0
 16 21  1  0  0  0  0
 17 22  1  0  0  0  0
 17 23  1  0  0  0  0
M  END
> <PUBCHEM_COMPOUND_CID>
15764506

> <PUBCHEM_CONFORMER_RMSD>
0.6

> <PUBCHEM_CONFORMER_DIVERSEORDER>
1
8
7
6
2
4
3
5

> <PUBCHEM_MMFF94_PARTIAL_CHARGES>
24
1 1.51
10 -0.77
11 -0.7
12 0.28
13 0.28
14 0.56
15 0.28
16 0.56
17 0.28
2 -0.56
24 0.4
25 0.4
26 0.4
27 0.4
28 0.4
29 0.5
3 -0.68
30 0.5
4 -0.68
5 -0.68
6 -0.55
7 -0.68
8 -0.68
9 -0.77

> <PUBCHEM_EFFECTIVE_ROTOR_COUNT>
4.2

> <PUBCHEM_PHARMACOPHORE_FEATURES>
16
1 10 acceptor
1 11 acceptor
1 2 acceptor
1 3 acceptor
1 3 donor
1 4 acceptor
1 4 donor
1 5 acceptor
1 5 donor
1 7 acceptor
1 7 donor
1 8 acceptor
1 8 donor
1 9 acceptor
4 1 9 10 11 anion
6 2 12 13 14 15 16 rings

> <PUBCHEM_HEAVY_ATOM_COUNT>
17

> <PUBCHEM_ATOM_DEF_STEREO_COUNT>
5

> <PUBCHEM_ATOM_UDEF_STEREO_COUNT>
0

> <PUBCHEM_BOND_DEF_STEREO_COUNT>
0

> <PUBCHEM_BOND_UDEF_STEREO_COUNT>
0

> <PUBCHEM_ISOTOPIC_ATOM_COUNT>
0

> <PUBCHEM_COMPONENT_COUNT>
1

> <PUBCHEM_CACTVS_TAUTO_COUNT>
1

> <PUBCHEM_CONFORMER_ID>
00F08C1A00000001

> <PUBCHEM_MMFF94_ENERGY>
9.2337

> <PUBCHEM_FEATURE_SELFOVERLAP>
81.306

> <PUBCHEM_SHAPE_FINGERPRINT>
107287 299 18114475512444664491
10980938 120 18410852179031850869
12423570 1 13867600396152051038
12553582 1 18123757452278737423
12654215 9 18335127704898716645
12932764 1 18260268551370433413
13140716 1 18339642342813220354
14144814 61 18413107247658344905
14178342 30 18342449374671873635
14251717 144 18339915008875258237
14817 1 9101992408805950968
15001771 113 18050568439332178768
16945 1 18411703140854682596
17990270 104 18265889164221704627
18186145 218 18339934817022152604
193761 8 18123187896849971300
20201158 50 18334852788600570539
20645477 70 18335409163206871351
21452121 199 17902781973531616322
21524375 3 17974002048883234736
2334 1 18195244653168478708
23402539 116 18199740505213132020
23419403 2 16099299260033095072
23530152 11 18266457796622729958
23557571 272 17698163942303468006
23598291 2 18060426794078873373
2748010 2 18193287514034116080
3060560 45 18412820313235051470
7364860 26 18411694357641307038
81228 2 17545304294563498505
81539 233 18261103131813757332

> <PUBCHEM_SHAPE_MULTIPOLES>
295.01
5.18
2.92
1.02
5.64
0.73
0.15
-0.09
-0.67
-2.07
0.17
0.14
0.07
-0.1

> <PUBCHEM_SHAPE_SELFOVERLAP>
581.841

> <PUBCHEM_SHAPE_VOLUME>
176.8

> <PUBCHEM_COORDINATE_TYPE>
2
5
10