159983
  -OEChem-05072106003D

 48 49  0     1  0  0  0  0  0999 V2000
    4.6819    2.2758    0.4171 O   0  0  0  0  0  0  0  0  0  0  0  0
    5.0451    0.6190   -1.7150 O   0  0  0  0  0  0  0  0  0  0  0  0
    6.6599    0.2569    0.5476 O   0  0  0  0  0  0  0  0  0  0  0  0
    2.5853    1.3203   -2.3893 O   0  0  0  0  0  0  0  0  0  0  0  0
    6.0818   -1.6406    2.8221 O   0  0  0  0  0  0  0  0  0  0  0  0
   -1.2415   -2.1158    0.8451 O   0  0  0  0  0  0  0  0  0  0  0  0
   -0.1738   -2.5973   -1.0964 O   0  0  0  0  0  0  0  0  0  0  0  0
    0.3289    0.0967   -1.4060 N   0  0  0  0  0  0  0  0  0  0  0  0
   -5.1576   -1.5229   -0.1019 N   0  0  0  0  0  0  0  0  0  0  0  0
   -0.8588   -0.2974   -0.6601 C   0  0  1  0  0  0  0  0  0  0  0  0
   -2.1103   -0.0172   -1.5048 C   0  0  0  0  0  0  0  0  0  0  0  0
    4.3335    0.8963    0.5947 C   0  0  1  0  0  0  0  0  0  0  0  0
    4.0376    0.2730   -0.7764 C   0  0  1  0  0  0  0  0  0  0  0  0
   -3.3939   -0.3757   -0.8093 C   0  0  0  0  0  0  0  0  0  0  0  0
    1.4621    0.2958   -0.5139 C   0  0  0  0  0  0  0  0  0  0  0  0
    5.4833    0.2185    1.3640 C   0  0  1  0  0  0  0  0  0  0  0  0
   -4.1764    0.4770    0.0187 C   0  0  0  0  0  0  0  0  0  0  0  0
    2.6769    0.6938   -1.3328 C   0  0  0  0  0  0  0  0  0  0  0  0
   -5.2769   -0.2670    0.4494 C   0  0  0  0  0  0  0  0  0  0  0  0
   -4.0229   -1.5981   -0.8641 C   0  0  0  0  0  0  0  0  0  0  0  0
    5.2259   -1.2346    1.7612 C   0  0  0  0  0  0  0  0  0  0  0  0
   -0.7163   -1.7807   -0.3625 C   0  0  0  0  0  0  0  0  0  0  0  0
   -4.0535    1.8146    0.4443 C   0  0  0  0  0  0  0  0  0  0  0  0
   -6.2646    0.2618    1.2879 C   0  0  0  0  0  0  0  0  0  0  0  0
   -5.0340    2.3570    1.2833 C   0  0  0  0  0  0  0  0  0  0  0  0
   -6.1217    1.5907    1.6972 C   0  0  0  0  0  0  0  0  0  0  0  0
   -0.9266    0.2597    0.2835 H   0  0  0  0  0  0  0  0  0  0  0  0
   -2.0606   -0.5795   -2.4480 H   0  0  0  0  0  0  0  0  0  0  0  0
   -2.1443    1.0442   -1.7841 H   0  0  0  0  0  0  0  0  0  0  0  0
    3.4460    0.8713    1.2364 H   0  0  0  0  0  0  0  0  0  0  0  0
    4.0136   -0.8199   -0.7147 H   0  0  0  0  0  0  0  0  0  0  0  0
    5.7183    0.8068    2.2593 H   0  0  0  0  0  0  0  0  0  0  0  0
    1.7001   -0.6292    0.0216 H   0  0  0  0  0  0  0  0  0  0  0  0
    1.2699    1.0949    0.2102 H   0  0  0  0  0  0  0  0  0  0  0  0
    0.1476    0.9719   -1.8982 H   0  0  0  0  0  0  0  0  0  0  0  0
   -3.7669   -2.5151   -1.3765 H   0  0  0  0  0  0  0  0  0  0  0  0
   -5.8135   -2.2792    0.0366 H   0  0  0  0  0  0  0  0  0  0  0  0
    5.3991   -1.9118    0.9185 H   0  0  0  0  0  0  0  0  0  0  0  0
    4.1965   -1.3552    2.1135 H   0  0  0  0  0  0  0  0  0  0  0  0
   -3.2113    2.4255    0.1321 H   0  0  0  0  0  0  0  0  0  0  0  0
   -7.1117   -0.3340    1.6109 H   0  0  0  0  0  0  0  0  0  0  0  0
    3.9214    2.7182    0.0030 H   0  0  0  0  0  0  0  0  0  0  0  0
    5.1170    1.5887   -1.7291 H   0  0  0  0  0  0  0  0  0  0  0  0
   -4.9443    3.3880    1.6151 H   0  0  0  0  0  0  0  0  0  0  0  0
    6.8177    1.1864    0.3088 H   0  0  0  0  0  0  0  0  0  0  0  0
   -6.8715    2.0319    2.3489 H   0  0  0  0  0  0  0  0  0  0  0  0
    5.8628   -2.5654    3.0281 H   0  0  0  0  0  0  0  0  0  0  0  0
   -1.1379   -3.0725    1.0357 H   0  0  0  0  0  0  0  0  0  0  0  0
  1 12  1  0  0  0  0
  1 42  1  0  0  0  0
  2 13  1  0  0  0  0
  2 43  1  0  0  0  0
  3 16  1  0  0  0  0
  3 45  1  0  0  0  0
  4 18  2  0  0  0  0
  5 21  1  0  0  0  0
  5 47  1  0  0  0  0
  6 22  1  0  0  0  0
  6 48  1  0  0  0  0
  7 22  2  0  0  0  0
  8 10  1  0  0  0  0
  8 15  1  0  0  0  0
  8 35  1  0  0  0  0
  9 19  1  0  0  0  0
  9 20  1  0  0  0  0
  9 37  1  0  0  0  0
 10 11  1  0  0  0  0
 10 22  1  0  0  0  0
 10 27  1  0  0  0  0
 11 14  1  0  0  0  0
 11 28  1  0  0  0  0
 11 29  1  0  0  0  0
 12 13  1  0  0  0  0
 12 16  1  0  0  0  0
 12 30  1  0  0  0  0
 13 18  1  0  0  0  0
 13 31  1  0  0  0  0
 14 17  1  0  0  0  0
 14 20  2  0  0  0  0
 15 18  1  0  0  0  0
 15 33  1  0  0  0  0
 15 34  1  0  0  0  0
 16 21  1  0  0  0  0
 16 32  1  0  0  0  0
 17 19  1  0  0  0  0
 17 23  2  0  0  0  0
 19 24  2  0  0  0  0
 20 36  1  0  0  0  0
 21 38  1  0  0  0  0
 21 39  1  0  0  0  0
 23 25  1  0  0  0  0
 23 40  1  0  0  0  0
 24 26  1  0  0  0  0
 24 41  1  0  0  0  0
 25 26  2  0  0  0  0
 25 44  1  0  0  0  0
 26 46  1  0  0  0  0
M  END
> <PUBCHEM_COMPOUND_CID>
159983

> <PUBCHEM_CONFORMER_RMSD>
1

> <PUBCHEM_CONFORMER_DIVERSEORDER>
1
41
102
79
95
142
62
97
109
47
88
49
166
153
129
145
9
122
92
68
158
136
67
126
63
144
120
89
113
57
4
147
64
69
146
131
105
10
31
20
59
108
13
39
16
27
60
50
66
151
65
40
25
8
29
38
130
128
56
86
44
116
168
106
171
118
164
132
140
46
161
150
61
141
101
12
37
133
52
85
2
87
165
162
82
160
100
23
167
159
139
103
148
114
48
84
111
78
94
35
96
22
127
14
75
58
115
124
112
53
28
99
72
149
143
123
17
54
104
81
110
6
157
34
21
73
70
155
18
24
138
7
121
135
76
134
80
93
45
33
77
117
119
90
15
83
169
107
137
170
3
163
152
36
98
43
26
91
74
51
42
125
156
30
5
32
154
55
19
11
71

> <PUBCHEM_MMFF94_PARTIAL_CHARGES>
37
1 -0.68
10 0.33
11 0.18
12 0.28
13 0.34
14 -0.18
15 0.33
16 0.28
18 0.45
19 -0.15
2 -0.68
20 -0.3
21 0.28
22 0.66
23 -0.15
24 -0.15
25 -0.15
26 -0.15
3 -0.68
35 0.36
36 0.15
37 0.27
4 -0.57
40 0.15
41 0.15
42 0.4
43 0.4
44 0.15
45 0.4
46 0.15
47 0.4
48 0.5
5 -0.68
6 -0.65
7 -0.57
8 -0.9
9 0.03

> <PUBCHEM_EFFECTIVE_ROTOR_COUNT>
10

> <PUBCHEM_PHARMACOPHORE_FEATURES>
18
1 1 acceptor
1 1 donor
1 2 acceptor
1 2 donor
1 3 acceptor
1 3 donor
1 4 acceptor
1 5 acceptor
1 5 donor
1 6 acceptor
1 7 acceptor
1 8 cation
1 8 donor
1 9 cation
1 9 donor
3 6 7 22 anion
5 9 14 17 19 20 rings
6 17 19 23 24 25 26 rings

> <PUBCHEM_HEAVY_ATOM_COUNT>
26

> <PUBCHEM_ATOM_DEF_STEREO_COUNT>
4

> <PUBCHEM_ATOM_UDEF_STEREO_COUNT>
0

> <PUBCHEM_BOND_DEF_STEREO_COUNT>
0

> <PUBCHEM_BOND_UDEF_STEREO_COUNT>
0

> <PUBCHEM_ISOTOPIC_ATOM_COUNT>
0

> <PUBCHEM_COMPONENT_COUNT>
1

> <PUBCHEM_CACTVS_TAUTO_COUNT>
10

> <PUBCHEM_CONFORMER_ID>
000270EF00000001

> <PUBCHEM_MMFF94_ENERGY>
42.3277

> <PUBCHEM_FEATURE_SELFOVERLAP>
91.538

> <PUBCHEM_SHAPE_FINGERPRINT>
10 15 18343027717909682209
10674148 151 18412269433479570598
10692045 39 18342174406708357186
12422481 6 18189609454218042806
12596602 18 18114459058546624033
12616971 3 17895199930372045853
12633257 1 17676492782166416559
12838862 33 18201153253671004609
12895836 83 16343704301566879629
13383668 40 14996835500177758763
13533116 47 17748825224695428624
13551218 46 17748817514865297758
13690498 29 10806492348308512693
13782708 43 14779260895697506896
13878862 14 14907892735820607184
14251764 30 13262394466575181722
14466204 15 18272089379221616329
14528608 73 10592040263125728614
14739800 52 17845934009802882747
15183329 4 18412820296250276384
15238133 3 18201443601406369036
15799311 1 17095253526880965986
16079462 125 16415759721422914709
18222031 100 10737285783430176935
18927931 339 11746942006124391081
21033648 29 17131827686151768684
21623969 137 15719110266967038232
21682296 61 16732975384483208434
2303208 19 14706928440663432777
23559900 14 17489322853767365020
25122255 55 13912330088053391649
2838139 119 16988837268058645489
2916195 48 17489869358059004501
3459 39 17988912345578372633
3663271 9 18409163350672687192
3680242 22 18408042922522959584
44249763 50 16343408562460648229
465052 167 16370728132270952294
5104073 3 18189057662494743288
513202 73 16878216459607248973
5283173 99 17561092396848919401
54039377 194 17096358446779981474
7226269 152 17775566437708419361
86090 222 15285643153418494768
8863177 126 14707216547265230432
960060 61 10735877261705926868
9981440 41 18412272739987755939
999808 66 16081366319925681234

> <PUBCHEM_SHAPE_MULTIPOLES>
484.02
18.26
2.21
1.99
8.49
0.18
0.52
8.15
8.61
-2.96
0.34
4.02
-0.18
-1.07

> <PUBCHEM_SHAPE_SELFOVERLAP>
1011.701

> <PUBCHEM_SHAPE_VOLUME>
273.5

> <PUBCHEM_COORDINATE_TYPE>
2
5
10