16181470
  -OEChem-05072106003D

 28 28  0     1  0  0  0  0  0999 V2000
    0.5446    2.3339   -0.2642 P   0  0  0  0  0  0  0  0  0  0  0  0
    3.6408   -1.0966   -0.3412 P   0  0  0  0  0  0  0  0  0  0  0  0
   -1.0369    0.1171   -1.4973 O   0  0  0  0  0  0  0  0  0  0  0  0
   -0.0137    0.9937    0.4502 O   0  0  0  0  0  0  0  0  0  0  0  0
   -0.6117   -2.5370   -0.2893 O   0  0  0  0  0  0  0  0  0  0  0  0
   -2.2453   -0.1047    1.8784 O   0  0  0  0  0  0  0  0  0  0  0  0
   -4.3224   -0.3885    0.0634 O   0  0  0  0  0  0  0  0  0  0  0  0
    2.1133   -0.7244    0.0723 O   0  0  0  0  0  0  0  0  0  0  0  0
   -0.5972    3.2040    0.0065 O   0  0  0  0  0  0  0  0  0  0  0  0
    1.4047    2.7891    0.8249 O   0  0  0  0  0  0  0  0  0  0  0  0
    4.1851    0.2588   -0.3708 O   0  0  0  0  0  0  0  0  0  0  0  0
    4.1256   -1.4774    0.9828 O   0  0  0  0  0  0  0  0  0  0  0  0
   -0.6994   -1.3251    0.4591 C   0  0  1  0  0  0  0  0  0  0  0  0
   -0.1589   -0.1526   -0.3940 C   0  0  1  0  0  0  0  0  0  0  0  0
   -2.1626   -1.1113    0.8709 C   0  0  2  0  0  0  0  0  0  0  0  0
   -3.0049   -0.7257   -0.3479 C   0  0  2  0  0  0  0  0  0  0  0  0
   -2.3737    0.4297   -1.1131 C   0  0  0  0  0  0  0  0  0  0  0  0
    1.2126   -0.4830   -0.9906 C   0  0  0  0  0  0  0  0  0  0  0  0
   -0.0859   -1.4345    1.3621 H   0  0  0  0  0  0  0  0  0  0  0  0
   -2.5729   -2.0278    1.3116 H   0  0  0  0  0  0  0  0  0  0  0  0
   -3.0716   -1.5968   -1.0115 H   0  0  0  0  0  0  0  0  0  0  0  0
   -2.9460    0.6225   -2.0275 H   0  0  0  0  0  0  0  0  0  0  0  0
   -2.4178    1.3585   -0.5356 H   0  0  0  0  0  0  0  0  0  0  0  0
    1.5884    0.3004   -1.6618 H   0  0  0  0  0  0  0  0  0  0  0  0
    1.1291   -1.3768   -1.6259 H   0  0  0  0  0  0  0  0  0  0  0  0
   -0.9150   -3.2600    0.2858 H   0  0  0  0  0  0  0  0  0  0  0  0
   -3.1877    0.0325    2.0752 H   0  0  0  0  0  0  0  0  0  0  0  0
   -4.8281   -0.1549   -0.7336 H   0  0  0  0  0  0  0  0  0  0  0  0
  1  4  1  0  0  0  0
  1  9  2  0  0  0  0
  1 10  2  0  0  0  0
  2  8  1  0  0  0  0
  2 11  2  0  0  0  0
  2 12  2  0  0  0  0
  3 14  1  0  0  0  0
  3 17  1  0  0  0  0
  4 14  1  0  0  0  0
  5 13  1  0  0  0  0
  5 26  1  0  0  0  0
  6 15  1  0  0  0  0
  6 27  1  0  0  0  0
  7 16  1  0  0  0  0
  7 28  1  0  0  0  0
  8 18  1  0  0  0  0
 13 14  1  0  0  0  0
 13 15  1  0  0  0  0
 13 19  1  0  0  0  0
 14 18  1  0  0  0  0
 15 16  1  0  0  0  0
 15 20  1  0  0  0  0
 16 17  1  0  0  0  0
 16 21  1  0  0  0  0
 17 22  1  0  0  0  0
 17 23  1  0  0  0  0
 18 24  1  0  0  0  0
 18 25  1  0  0  0  0
M  END
> <PUBCHEM_COMPOUND_CID>
16181470

> <PUBCHEM_CONFORMER_RMSD>
0.8

> <PUBCHEM_CONFORMER_DIVERSEORDER>
1
27
19
22
11
12
20
18
21
16
4
25
9
3
10
24
26
8
23
17
14
6
15
13
7
5
2

> <PUBCHEM_EFFECTIVE_ROTOR_COUNT>
6.2

> <PUBCHEM_PHARMACOPHORE_FEATURES>
12
1 10 acceptor
1 11 acceptor
1 12 acceptor
1 3 acceptor
1 5 acceptor
1 5 donor
1 6 acceptor
1 6 donor
1 7 acceptor
1 7 donor
1 9 acceptor
6 3 13 14 15 16 17 rings

> <PUBCHEM_HEAVY_ATOM_COUNT>
18

> <PUBCHEM_ATOM_DEF_STEREO_COUNT>
4

> <PUBCHEM_ATOM_UDEF_STEREO_COUNT>
0

> <PUBCHEM_BOND_DEF_STEREO_COUNT>
0

> <PUBCHEM_BOND_UDEF_STEREO_COUNT>
0

> <PUBCHEM_ISOTOPIC_ATOM_COUNT>
0

> <PUBCHEM_COMPONENT_COUNT>
1

> <PUBCHEM_CACTVS_TAUTO_COUNT>
1

> <PUBCHEM_CONFORMER_ID>
00F6E8DE00000001

> <PUBCHEM_MMFF94_ENERGY>
47.5611

> <PUBCHEM_FEATURE_SELFOVERLAP>
61.073

> <PUBCHEM_SHAPE_FINGERPRINT>
10465860 250 18334287652456041530
10989021 7 18272369789083237192
11315181 36 17969218942202571170
11680986 33 18120936367571603571
12507560 14 18413389856089930727
13024252 1 17895195459184593807
13027679 85 18408324406047036557
14142880 1 17773314522030824456
15375462 478 17561370586354749659
16945 1 18058191525452080511
18785283 64 17974008645715988252
200 152 18187362095791210702
20510252 161 18336545997926434518
20671657 1 18123476239395024965
21029758 11 18410288116750322493
21041028 32 18272091595715040625
21061003 4 18411427201916652263
21130352 189 18411136969570294261
21296965 67 18410573972409032652
21501502 16 18052817237000803655
2297311 6 18341059515176955070
23175994 123 18408890611432603031
23402539 116 18272077267160543247
23419403 2 18191561173325782996
23559900 14 18188481386038602014
23598294 1 18265899051821878840
2748010 2 18263624282265138501
305870 269 17765717205883776112
3250762 1 17904199578815972975
3286 77 18335703896879707911
568465 68 17897193323357249371
589210 1 17834674172799407366
7364860 26 18052539056147775780
81228 2 18123208817551176664

> <PUBCHEM_SHAPE_MULTIPOLES>
319.44
6.04
2.64
1.17
3.51
2.36
0.12
-2.81
0.4
0.67
0.41
-0.42
-0.04
0.17

> <PUBCHEM_SHAPE_SELFOVERLAP>
632.368

> <PUBCHEM_SHAPE_VOLUME>
190.8

> <PUBCHEM_COORDINATE_TYPE>
2
5
10