16181471
  -OEChem-05072106003D

 26 26  0     1  0  0  0  0  0999 V2000
    3.8531    0.2735   -0.0621 P   0  0  0  0  0  0  0  0  0  0  0  0
   -0.2012   -0.9054    0.4751 O   0  0  0  0  0  0  0  0  0  0  0  0
   -0.9806    1.8071    1.3232 O   0  0  0  0  0  0  0  0  0  0  0  0
   -0.1079   -0.0222   -1.7202 O   0  0  0  0  0  0  0  0  0  0  0  0
   -2.9245    0.4423   -1.4413 O   0  0  0  0  0  0  0  0  0  0  0  0
   -3.8528   -1.2918    0.5131 O   0  0  0  0  0  0  0  0  0  0  0  0
    2.2999   -0.1306   -0.3203 O   0  0  0  0  0  0  0  0  0  0  0  0
    3.9619   -0.1883    1.3195 O   0  0  0  0  0  0  0  0  0  0  0  0
    4.4758   -0.8794   -0.7073 O   0  0  0  0  0  0  0  0  0  0  0  0
   -1.1715    1.2986    0.0035 C   0  0  1  0  0  0  0  0  0  0  0  0
   -0.0538    0.2792   -0.3223 C   0  0  1  0  0  0  0  0  0  0  0  0
   -2.5684    0.6676   -0.0784 C   0  0  2  0  0  0  0  0  0  0  0  0
   -2.6051   -0.6424    0.7129 C   0  0  2  0  0  0  0  0  0  0  0  0
   -1.4571   -1.5607    0.3154 C   0  0  0  0  0  0  0  0  0  0  0  0
    1.3320    0.8526   -0.0109 C   0  0  0  0  0  0  0  0  0  0  0  0
   -1.1044    2.1401   -0.6972 H   0  0  0  0  0  0  0  0  0  0  0  0
   -3.3265    1.3440    0.3345 H   0  0  0  0  0  0  0  0  0  0  0  0
   -2.5161   -0.4044    1.7801 H   0  0  0  0  0  0  0  0  0  0  0  0
   -1.4552   -2.4517    0.9532 H   0  0  0  0  0  0  0  0  0  0  0  0
   -1.5660   -1.9258   -0.7129 H   0  0  0  0  0  0  0  0  0  0  0  0
    1.4069    1.1084    1.0539 H   0  0  0  0  0  0  0  0  0  0  0  0
    1.5066    1.7509   -0.6180 H   0  0  0  0  0  0  0  0  0  0  0  0
   -1.6678    2.4765    1.4820 H   0  0  0  0  0  0  0  0  0  0  0  0
    0.7759   -0.3137   -2.0009 H   0  0  0  0  0  0  0  0  0  0  0  0
   -2.9023    1.3017   -1.8957 H   0  0  0  0  0  0  0  0  0  0  0  0
   -3.8427   -2.1137    1.0327 H   0  0  0  0  0  0  0  0  0  0  0  0
  1  7  1  0  0  0  0
  1  8  2  0  0  0  0
  1  9  2  0  0  0  0
  2 11  1  0  0  0  0
  2 14  1  0  0  0  0
  3 10  1  0  0  0  0
  3 23  1  0  0  0  0
  4 11  1  0  0  0  0
  4 24  1  0  0  0  0
  5 12  1  0  0  0  0
  5 25  1  0  0  0  0
  6 13  1  0  0  0  0
  6 26  1  0  0  0  0
  7 15  1  0  0  0  0
 10 11  1  0  0  0  0
 10 12  1  0  0  0  0
 10 16  1  0  0  0  0
 11 15  1  0  0  0  0
 12 13  1  0  0  0  0
 12 17  1  0  0  0  0
 13 14  1  0  0  0  0
 13 18  1  0  0  0  0
 14 19  1  0  0  0  0
 14 20  1  0  0  0  0
 15 21  1  0  0  0  0
 15 22  1  0  0  0  0
M  END
> <PUBCHEM_COMPOUND_CID>
16181471

> <PUBCHEM_CONFORMER_RMSD>
0.6

> <PUBCHEM_CONFORMER_DIVERSEORDER>
1
38
44
36
24
2
9
17
48
41
39
40
7
27
25
29
42
21
26
28
15
46
22
20
43
10
45
34
5
35
6
4
14
3
47
11
23
37
32
12
19
18
8
16
30
31
13
33

> <PUBCHEM_EFFECTIVE_ROTOR_COUNT>
4.2

> <PUBCHEM_PHARMACOPHORE_FEATURES>
12
1 2 acceptor
1 3 acceptor
1 3 donor
1 4 acceptor
1 4 donor
1 5 acceptor
1 5 donor
1 6 acceptor
1 6 donor
1 8 acceptor
1 9 acceptor
6 2 10 11 12 13 14 rings

> <PUBCHEM_HEAVY_ATOM_COUNT>
15

> <PUBCHEM_ATOM_DEF_STEREO_COUNT>
4

> <PUBCHEM_ATOM_UDEF_STEREO_COUNT>
0

> <PUBCHEM_BOND_DEF_STEREO_COUNT>
0

> <PUBCHEM_BOND_UDEF_STEREO_COUNT>
0

> <PUBCHEM_ISOTOPIC_ATOM_COUNT>
0

> <PUBCHEM_COMPONENT_COUNT>
1

> <PUBCHEM_CACTVS_TAUTO_COUNT>
1

> <PUBCHEM_CONFORMER_ID>
00F6E8DF00000001

> <PUBCHEM_MMFF94_ENERGY>
34.6907

> <PUBCHEM_FEATURE_SELFOVERLAP>
61.033

> <PUBCHEM_SHAPE_FINGERPRINT>
11769659 78 18040996301369483731
12032990 46 18410862087289131794
12119455 92 16845577478543351829
12932764 1 17385723587054532316
13024252 1 13551193281859665125
13214271 11 17847068770359138385
13581323 91 18408045130119864190
14144814 61 18261111846824425856
14577589 140 17603867788641500991
14943859 89 11023832759871599207
14993402 34 16805325525870664942
16945 1 18272655657626634997
18186145 218 18187082849828537292
19422 9 16732700545520827882
200 152 18131625686335550005
22485316 2 17530960281174787140
2306618 200 18260546671703892429
23402539 116 17989204850489937815
23559900 14 18411418397993253236
57812782 119 18343861113152586808

> <PUBCHEM_SHAPE_MULTIPOLES>
265.59
7.01
1.4
1.15
6.88
0.03
0.14
1.9
-0.2
-0.88
-0.29
-0.02
-0.19
0.28

> <PUBCHEM_SHAPE_SELFOVERLAP>
527.378

> <PUBCHEM_SHAPE_VOLUME>
158.5

> <PUBCHEM_COORDINATE_TYPE>
2
5
10