16217605
  -OEChem-05072106003D

 45 46  0     1  0  0  0  0  0999 V2000
   -0.1480   -0.7002   -0.0735 O   0  0  0  0  0  0  0  0  0  0  0  0
   -3.0817   -0.2479    1.0277 O   0  0  0  0  0  0  0  0  0  0  0  0
    1.6584    0.7349   -0.4291 O   0  0  0  0  0  0  0  0  0  0  0  0
   -2.6936    1.4034   -1.4722 O   0  0  0  0  0  0  0  0  0  0  0  0
   -2.6941   -2.0734   -0.3984 O   0  0  0  0  0  0  0  0  0  0  0  0
    1.5744   -2.4901    1.3042 O   0  0  0  0  0  0  0  0  0  0  0  0
    4.3360   -2.2905    0.4678 O   0  0  0  0  0  0  0  0  0  0  0  0
    4.0546   -0.3701   -1.5227 O   0  0  0  0  0  0  0  0  0  0  0  0
   -2.8409    1.7220    2.9772 O   0  0  0  0  0  0  0  0  0  0  0  0
   -4.6136   -1.0373   -2.1814 O   0  0  0  0  0  0  0  0  0  0  0  0
    2.3540    3.3727   -0.7428 O   0  0  0  0  0  0  0  0  0  0  0  0
   -1.0561    0.3984   -0.0636 C   0  0  1  0  0  0  0  0  0  0  0  0
   -2.1360    0.1500   -1.1003 C   0  0  1  0  0  0  0  0  0  0  0  0
   -1.8220    0.4117    1.2582 C   0  0  1  0  0  0  0  0  0  0  0  0
   -3.1360   -0.7152   -0.3302 C   0  0  2  0  0  0  0  0  0  0  0  0
    1.1429   -0.3102    0.3943 C   0  0  2  0  0  0  0  0  0  0  0  0
    2.0504   -1.5417    0.3493 C   0  0  1  0  0  0  0  0  0  0  0  0
    3.4916   -1.1645    0.6904 C   0  0  2  0  0  0  0  0  0  0  0  0
    3.9629    0.0217   -0.1515 C   0  0  2  0  0  0  0  0  0  0  0  0
    2.9616    1.1755   -0.0278 C   0  0  1  0  0  0  0  0  0  0  0  0
   -2.1231    1.8173    1.7590 C   0  0  0  0  0  0  0  0  0  0  0  0
   -4.5742   -0.6287   -0.8251 C   0  0  0  0  0  0  0  0  0  0  0  0
    3.3325    2.3623   -0.9095 C   0  0  0  0  0  0  0  0  0  0  0  0
   -0.5454    1.3505   -0.2447 H   0  0  0  0  0  0  0  0  0  0  0  0
   -1.7580   -0.3529   -1.9972 H   0  0  0  0  0  0  0  0  0  0  0  0
   -1.3108   -0.1576    2.0427 H   0  0  0  0  0  0  0  0  0  0  0  0
    1.0415    0.0490    1.4272 H   0  0  0  0  0  0  0  0  0  0  0  0
    2.0031   -2.0315   -0.6308 H   0  0  0  0  0  0  0  0  0  0  0  0
    3.5686   -0.9133    1.7557 H   0  0  0  0  0  0  0  0  0  0  0  0
    4.9669    0.3304    0.1585 H   0  0  0  0  0  0  0  0  0  0  0  0
    2.8942    1.5174    1.0134 H   0  0  0  0  0  0  0  0  0  0  0  0
   -1.1985    2.3748    1.9383 H   0  0  0  0  0  0  0  0  0  0  0  0
   -2.7480    2.3697    1.0506 H   0  0  0  0  0  0  0  0  0  0  0  0
   -4.9910    0.3795   -0.7295 H   0  0  0  0  0  0  0  0  0  0  0  0
   -5.2232   -1.2998   -0.2522 H   0  0  0  0  0  0  0  0  0  0  0  0
    3.3481    2.0963   -1.9713 H   0  0  0  0  0  0  0  0  0  0  0  0
    4.3087    2.7718   -0.6339 H   0  0  0  0  0  0  0  0  0  0  0  0
   -2.0010    1.9071   -1.9330 H   0  0  0  0  0  0  0  0  0  0  0  0
   -3.4475   -2.6506   -0.1896 H   0  0  0  0  0  0  0  0  0  0  0  0
    0.6489   -2.6885    1.0805 H   0  0  0  0  0  0  0  0  0  0  0  0
    3.9912   -3.0241    1.0051 H   0  0  0  0  0  0  0  0  0  0  0  0
    3.1540   -0.5044   -1.8630 H   0  0  0  0  0  0  0  0  0  0  0  0
   -3.0165    2.6298    3.2782 H   0  0  0  0  0  0  0  0  0  0  0  0
   -4.1587   -0.3594   -2.7092 H   0  0  0  0  0  0  0  0  0  0  0  0
    1.4925    2.9906   -0.9833 H   0  0  0  0  0  0  0  0  0  0  0  0
  1 12  1  0  0  0  0
  1 16  1  0  0  0  0
  2 14  1  0  0  0  0
  2 15  1  0  0  0  0
  3 16  1  0  0  0  0
  3 20  1  0  0  0  0
  4 13  1  0  0  0  0
  4 38  1  0  0  0  0
  5 15  1  0  0  0  0
  5 39  1  0  0  0  0
  6 17  1  0  0  0  0
  6 40  1  0  0  0  0
  7 18  1  0  0  0  0
  7 41  1  0  0  0  0
  8 19  1  0  0  0  0
  8 42  1  0  0  0  0
  9 21  1  0  0  0  0
  9 43  1  0  0  0  0
 10 22  1  0  0  0  0
 10 44  1  0  0  0  0
 11 23  1  0  0  0  0
 11 45  1  0  0  0  0
 12 13  1  0  0  0  0
 12 14  1  0  0  0  0
 12 24  1  0  0  0  0
 13 15  1  0  0  0  0
 13 25  1  0  0  0  0
 14 21  1  0  0  0  0
 14 26  1  0  0  0  0
 15 22  1  0  0  0  0
 16 17  1  0  0  0  0
 16 27  1  0  0  0  0
 17 18  1  0  0  0  0
 17 28  1  0  0  0  0
 18 19  1  0  0  0  0
 18 29  1  0  0  0  0
 19 20  1  0  0  0  0
 19 30  1  0  0  0  0
 20 23  1  0  0  0  0
 20 31  1  0  0  0  0
 21 32  1  0  0  0  0
 21 33  1  0  0  0  0
 22 34  1  0  0  0  0
 22 35  1  0  0  0  0
 23 36  1  0  0  0  0
 23 37  1  0  0  0  0
M  END
> <PUBCHEM_COMPOUND_CID>
16217605

> <PUBCHEM_CONFORMER_RMSD>
0.8

> <PUBCHEM_CONFORMER_DIVERSEORDER>
1
35
30
75
60
63
73
16
32
45
24
15
71
77
28
69
4
76
48
44
39
2
34
79
43
53
23
52
59
6
56
74
70
41
5
46
26
14
51
21
42
37
49
78
64
29
50
47
19
27
68
12
18
9
57
65
38
66
62
3
54
31
61
22
8
10
36
40
67
7
20
55
13
72
58
25
11
33
17

> <PUBCHEM_MMFF94_PARTIAL_CHARGES>
31
1 -0.56
10 -0.68
11 -0.68
12 0.28
13 0.28
14 0.28
15 0.56
16 0.56
17 0.28
18 0.28
19 0.28
2 -0.56
20 0.28
21 0.28
22 0.28
23 0.28
3 -0.56
38 0.4
39 0.4
4 -0.68
40 0.4
41 0.4
42 0.4
43 0.4
44 0.4
45 0.4
5 -0.68
6 -0.68
7 -0.68
8 -0.68
9 -0.68

> <PUBCHEM_EFFECTIVE_ROTOR_COUNT>
7.2

> <PUBCHEM_PHARMACOPHORE_FEATURES>
21
1 1 acceptor
1 10 acceptor
1 10 donor
1 11 acceptor
1 11 donor
1 2 acceptor
1 3 acceptor
1 4 acceptor
1 4 donor
1 5 acceptor
1 5 donor
1 6 acceptor
1 6 donor
1 7 acceptor
1 7 donor
1 8 acceptor
1 8 donor
1 9 acceptor
1 9 donor
5 2 12 13 14 15 rings
6 3 16 17 18 19 20 rings

> <PUBCHEM_HEAVY_ATOM_COUNT>
23

> <PUBCHEM_ATOM_DEF_STEREO_COUNT>
9

> <PUBCHEM_ATOM_UDEF_STEREO_COUNT>
0

> <PUBCHEM_BOND_DEF_STEREO_COUNT>
0

> <PUBCHEM_BOND_UDEF_STEREO_COUNT>
0

> <PUBCHEM_ISOTOPIC_ATOM_COUNT>
0

> <PUBCHEM_COMPONENT_COUNT>
1

> <PUBCHEM_CACTVS_TAUTO_COUNT>
1

> <PUBCHEM_CONFORMER_ID>
00F7760500000001

> <PUBCHEM_MMFF94_ENERGY>
66.921

> <PUBCHEM_FEATURE_SELFOVERLAP>
106.716

> <PUBCHEM_SHAPE_FINGERPRINT>
10366900 7 17095520647923661030
11578080 2 18057293189813634793
11615757 297 18410294705119313070
11725454 13 16517346980931522805
12236239 1 18201720656265139218
12507557 5 18335132081918446328
12553582 1 18118132381351243674
12596599 1 18271535212496933686
12714826 92 15841559578159020585
12788726 201 17846789511785967609
12916754 54 18334857220954130943
13009979 54 18058736793156857498
13224815 77 18187932823581901226
13583140 156 15792291639256305032
14787075 74 17620199066851146351
14844126 61 15809725052696837602
15375358 24 16298384656277190831
15842332 3 18272382952888870448
16752209 62 17632572721886799363
17349148 13 18202274788635189758
1813 80 16056309665668388629
18186145 218 18410020948546999452
19930381 70 17971748032808838205
200 152 18341323444689807375
20449540 30 18338800117038465689
20645477 70 18113330921035594846
21639500 275 18261113010681467648
221490 88 18187367670553337506
2255824 54 18408891763137829542
23557571 272 16271936973470449464
23559900 14 18261661653803582922
23598288 3 17632293437232919413
23598291 2 18270973353475923660
238 59 17968093161715588098
312423 11 18271537445679538744
474 4 18263928924501126228
495365 180 16588285194722775931
6049 1 16950862348295667600
633830 44 18267048140014669564
7471813 234 18201144516694297520
7615 1 18272655627530430080
77492 1 18272940405463370928
9709674 26 18113896091350127035
9981440 41 17688584288306234864

> <PUBCHEM_SHAPE_MULTIPOLES>
408.77
9.06
2.58
1.78
0.25
0.89
-0.65
-1.72
2.55
-2.1
-0.25
2
0.69
-2.37

> <PUBCHEM_SHAPE_SELFOVERLAP>
841.804

> <PUBCHEM_SHAPE_VOLUME>
231.3

> <PUBCHEM_COORDINATE_TYPE>
2
5
10