16212688
  -OEChem-05072106003D

 24 24  0     1  0  0  0  0  0999 V2000
    0.6618    1.3230   -0.0993 O   0  0  0  0  0  0  0  0  0  0  0  0
    0.0905   -2.3090   -0.1069 O   0  0  0  0  0  0  0  0  0  0  0  0
    1.3199   -0.3534    1.4360 O   0  0  0  0  0  0  0  0  0  0  0  0
   -2.6062   -1.2361   -0.0845 O   0  0  0  0  0  0  0  0  0  0  0  0
   -2.0587    1.2720   -1.0690 O   0  0  0  0  0  0  0  0  0  0  0  0
    3.2708    0.4758   -0.3702 O   0  0  0  0  0  0  0  0  0  0  0  0
   -0.2099   -0.9371   -0.3514 C   0  0  2  0  0  0  0  0  0  0  0  0
    0.9863   -0.0636    0.0748 C   0  0  1  0  0  0  0  0  0  0  0  0
   -1.4718   -0.5351    0.4176 C   0  0  1  0  0  0  0  0  0  0  0  0
   -1.7212    0.9670    0.2864 C   0  0  1  0  0  0  0  0  0  0  0  0
   -0.4712    1.7540    0.6620 C   0  0  0  0  0  0  0  0  0  0  0  0
    2.2098   -0.3575   -0.7956 C   1  0  0  0  0  0  0  0  0  0  0  0
   -0.4056   -0.8310   -1.4263 H   0  0  0  0  0  0  0  0  0  0  0  0
   -1.3657   -0.8150    1.4728 H   0  0  0  0  0  0  0  0  0  0  0  0
   -2.5745    1.2671    0.9042 H   0  0  0  0  0  0  0  0  0  0  0  0
   -0.6109    2.8175    0.4413 H   0  0  0  0  0  0  0  0  0  0  0  0
   -0.2486    1.6619    1.7308 H   0  0  0  0  0  0  0  0  0  0  0  0
    2.0077   -0.1390   -1.8491 H   0  0  0  0  0  0  0  0  0  0  0  0
    2.5452   -1.3935   -0.6898 H   0  0  0  0  0  0  0  0  0  0  0  0
    0.7323   -2.5975   -0.7770 H   0  0  0  0  0  0  0  0  0  0  0  0
    2.2558   -0.1284    1.5714 H   0  0  0  0  0  0  0  0  0  0  0  0
   -3.3795   -0.9507    0.4316 H   0  0  0  0  0  0  0  0  0  0  0  0
   -2.2325    2.2274   -1.1195 H   0  0  0  0  0  0  0  0  0  0  0  0
    4.0365    0.2788   -0.9363 H   0  0  0  0  0  0  0  0  0  0  0  0
  1  8  1  0  0  0  0
  1 11  1  0  0  0  0
  2  7  1  0  0  0  0
  2 20  1  0  0  0  0
  3  8  1  0  0  0  0
  3 21  1  0  0  0  0
  4  9  1  0  0  0  0
  4 22  1  0  0  0  0
  5 10  1  0  0  0  0
  5 23  1  0  0  0  0
  6 12  1  0  0  0  0
  6 24  1  0  0  0  0
  7  8  1  0  0  0  0
  7  9  1  0  0  0  0
  7 13  1  0  0  0  0
  8 12  1  0  0  0  0
  9 10  1  0  0  0  0
  9 14  1  0  0  0  0
 10 11  1  0  0  0  0
 10 15  1  0  0  0  0
 11 16  1  0  0  0  0
 11 17  1  0  0  0  0
 12 18  1  0  0  0  0
 12 19  1  0  0  0  0
M  ISO  1  12  13
M  END
> <PUBCHEM_COMPOUND_CID>
16212688

> <PUBCHEM_CONFORMER_RMSD>
0.6

> <PUBCHEM_CONFORMER_DIVERSEORDER>
2
1
10
6
5
9
7
3
4
11
8

> <PUBCHEM_MMFF94_PARTIAL_CHARGES>
17
1 -0.56
10 0.28
11 0.28
12 0.28
2 -0.68
20 0.4
21 0.4
22 0.4
23 0.4
24 0.4
3 -0.68
4 -0.68
5 -0.68
6 -0.68
7 0.28
8 0.56
9 0.28

> <PUBCHEM_EFFECTIVE_ROTOR_COUNT>
2.2

> <PUBCHEM_PHARMACOPHORE_FEATURES>
12
1 1 acceptor
1 2 acceptor
1 2 donor
1 3 acceptor
1 3 donor
1 4 acceptor
1 4 donor
1 5 acceptor
1 5 donor
1 6 acceptor
1 6 donor
6 1 7 8 9 10 11 rings

> <PUBCHEM_HEAVY_ATOM_COUNT>
12

> <PUBCHEM_ATOM_DEF_STEREO_COUNT>
3

> <PUBCHEM_ATOM_UDEF_STEREO_COUNT>
1

> <PUBCHEM_BOND_DEF_STEREO_COUNT>
0

> <PUBCHEM_BOND_UDEF_STEREO_COUNT>
0

> <PUBCHEM_ISOTOPIC_ATOM_COUNT>
1

> <PUBCHEM_COMPONENT_COUNT>
1

> <PUBCHEM_CACTVS_TAUTO_COUNT>
1

> <PUBCHEM_CONFORMER_ID>
00F762D000000002

> <PUBCHEM_MMFF94_ENERGY>
31.5603

> <PUBCHEM_FEATURE_SELFOVERLAP>
60.975

> <PUBCHEM_SHAPE_FINGERPRINT>
11206711 2 18409445912281275085
12423570 1 12535085112550114315
12716758 59 18411989035579438254
12897270 3 18341338781859688052
13024252 1 15864361297466645840
15310529 11 17168146693762958705
15775835 57 17967821517871772612
161256 15 18122903402389802377
16945 1 17749962161987499650
20653085 51 17750255663257839236
21040471 1 18051971424716983633
21922407 69 16009901409657073739
22802520 49 17843423803102446566
23235685 24 18268995297613615169
23552423 10 18263652757729408118
241688 4 17760086615448501331
2748010 2 18340480183585159753
29004967 10 15554173575482190198
369184 2 17095531681673558424
5084963 1 18059861704799319347
528886 8 18342746169417153089
6333449 129 18342741831938066348

> <PUBCHEM_SHAPE_MULTIPOLES>
211.74
3.33
1.81
0.93
1.28
0.31
-0.1
-0.18
0.65
-0.61
-0.02
0.07
-0.11
0.08

> <PUBCHEM_SHAPE_SELFOVERLAP>
425.864

> <PUBCHEM_SHAPE_VOLUME>
122.6

> <PUBCHEM_COORDINATE_TYPE>
2
5
10