165577
  -OEChem-05072106003D

 45 45  0     1  0  0  0  0  0999 V2000
   -2.3875    0.6669    0.9434 O   0  0  0  0  0  0  0  0  0  0  0  0
   -0.2186    0.1381    0.1453 O   0  0  0  0  0  0  0  0  0  0  0  0
   -3.0571   -3.2261   -0.2596 O   0  0  0  0  0  0  0  0  0  0  0  0
   -0.5493   -2.5150    0.9978 O   0  0  0  0  0  0  0  0  0  0  0  0
   -4.1506   -1.0587   -1.7955 O   0  0  0  0  0  0  0  0  0  0  0  0
   -3.6403    2.8450   -0.1239 O   0  0  0  0  0  0  0  0  0  0  0  0
    2.8959    2.0387    0.5614 O   0  0  0  0  0  0  0  0  0  0  0  0
   -0.0273    2.6101   -1.1040 O   0  0  0  0  0  0  0  0  0  0  0  0
    2.8082   -0.5410    1.8302 O   0  0  0  0  0  0  0  0  0  0  0  0
    5.1083   -0.7624    0.5672 O   0  0  0  0  0  0  0  0  0  0  0  0
    5.6143   -0.7242   -2.0487 O   0  0  0  0  0  0  0  0  0  0  0  0
   -2.4705   -1.9242   -0.3285 C   0  0  2  0  0  0  0  0  0  0  0  0
   -1.6869   -1.6610    0.9560 C   0  0  2  0  0  0  0  0  0  0  0  0
   -3.5947   -0.8995   -0.4925 C   0  0  1  0  0  0  0  0  0  0  0  0
   -3.0724    0.5317   -0.3071 C   0  0  1  0  0  0  0  0  0  0  0  0
   -1.2560   -0.1974    1.0650 C   0  0  2  0  0  0  0  0  0  0  0  0
    0.6414    1.1448    0.6780 C   0  0  1  0  0  0  0  0  0  0  0  0
   -4.2015    1.5587   -0.3099 C   0  0  0  0  0  0  0  0  0  0  0  0
    2.0659    0.9681    0.1203 C   0  0  2  0  0  0  0  0  0  0  0  0
    0.0530    2.5083    0.3143 C   0  0  0  0  0  0  0  0  0  0  0  0
    2.7295   -0.3849    0.4189 C   0  0  1  0  0  0  0  0  0  0  0  0
    4.1316   -0.5712   -0.1588 C   0  0  0  0  0  0  0  0  0  0  0  0
    4.2646   -0.5448   -1.6694 C   0  0  0  0  0  0  0  0  0  0  0  0
   -1.8079   -1.9310   -1.2016 H   0  0  0  0  0  0  0  0  0  0  0  0
   -2.3180   -1.9186    1.8157 H   0  0  0  0  0  0  0  0  0  0  0  0
   -4.3925   -1.1089    0.2305 H   0  0  0  0  0  0  0  0  0  0  0  0
   -0.8834   -0.0834    2.0905 H   0  0  0  0  0  0  0  0  0  0  0  0
   -2.3779    0.7968   -1.1150 H   0  0  0  0  0  0  0  0  0  0  0  0
    0.7105    1.0906    1.7722 H   0  0  0  0  0  0  0  0  0  0  0  0
   -4.7468    1.5523   -1.2581 H   0  0  0  0  0  0  0  0  0  0  0  0
   -4.9103    1.3796    0.5055 H   0  0  0  0  0  0  0  0  0  0  0  0
    2.0124    1.0443   -0.9730 H   0  0  0  0  0  0  0  0  0  0  0  0
   -3.6445   -3.2533    0.5148 H   0  0  0  0  0  0  0  0  0  0  0  0
    0.0226   -2.2828    0.2466 H   0  0  0  0  0  0  0  0  0  0  0  0
   -0.9515    2.6381    0.7193 H   0  0  0  0  0  0  0  0  0  0  0  0
    0.6677    3.3306    0.6924 H   0  0  0  0  0  0  0  0  0  0  0  0
   -3.4609   -0.8390   -2.4450 H   0  0  0  0  0  0  0  0  0  0  0  0
    2.1146   -1.2069    0.0386 H   0  0  0  0  0  0  0  0  0  0  0  0
   -3.2309    2.8599    0.7579 H   0  0  0  0  0  0  0  0  0  0  0  0
    2.6724    2.8260    0.0371 H   0  0  0  0  0  0  0  0  0  0  0  0
   -0.4089    3.4814   -1.3056 H   0  0  0  0  0  0  0  0  0  0  0  0
    3.2987    0.2198    2.1862 H   0  0  0  0  0  0  0  0  0  0  0  0
    3.6723   -1.3595   -2.0938 H   0  0  0  0  0  0  0  0  0  0  0  0
    3.9177    0.4122   -2.0653 H   0  0  0  0  0  0  0  0  0  0  0  0
    6.1122    0.0488   -1.7319 H   0  0  0  0  0  0  0  0  0  0  0  0
  1 15  1  0  0  0  0
  1 16  1  0  0  0  0
  2 16  1  0  0  0  0
  2 17  1  0  0  0  0
  3 12  1  0  0  0  0
  3 33  1  0  0  0  0
  4 13  1  0  0  0  0
  4 34  1  0  0  0  0
  5 14  1  0  0  0  0
  5 37  1  0  0  0  0
  6 18  1  0  0  0  0
  6 39  1  0  0  0  0
  7 19  1  0  0  0  0
  7 40  1  0  0  0  0
  8 20  1  0  0  0  0
  8 41  1  0  0  0  0
  9 21  1  0  0  0  0
  9 42  1  0  0  0  0
 10 22  2  0  0  0  0
 11 23  1  0  0  0  0
 11 45  1  0  0  0  0
 12 13  1  0  0  0  0
 12 14  1  0  0  0  0
 12 24  1  0  0  0  0
 13 16  1  0  0  0  0
 13 25  1  0  0  0  0
 14 15  1  0  0  0  0
 14 26  1  0  0  0  0
 15 18  1  0  0  0  0
 15 28  1  0  0  0  0
 16 27  1  0  0  0  0
 17 19  1  0  0  0  0
 17 20  1  0  0  0  0
 17 29  1  0  0  0  0
 18 30  1  0  0  0  0
 18 31  1  0  0  0  0
 19 21  1  0  0  0  0
 19 32  1  0  0  0  0
 20 35  1  0  0  0  0
 20 36  1  0  0  0  0
 21 22  1  0  0  0  0
 21 38  1  0  0  0  0
 22 23  1  0  0  0  0
 23 43  1  0  0  0  0
 23 44  1  0  0  0  0
M  END
> <PUBCHEM_COMPOUND_CID>
165577

> <PUBCHEM_CONFORMER_RMSD>
1

> <PUBCHEM_CONFORMER_DIVERSEORDER>
1
148
96
102
25
108
137
10
83
161
174
42
40
192
48
168
62
128
28
167
145
132
109
89
66
121
124
197
56
171
2
191
27
60
176
200
166
153
178
150
6
177
49
105
110
180
58
152
44
143
17
99
155
107
199
138
122
38
73
135
35
170
13
31
202
163
125
63
201
50
172
103
93
157
156
81
100
95
117
45
26
55
114
184
130
94
185
149
86
195
154
139
113
32
159
123
90
92
79
57
71
30
53
173
188
120
61
169
131
133
144
91
23
136
24
194
134
21
70
16
183
14
46
41
146
82
51
34
75
8
39
193
80
112
141
181
7
36
3
74
116
97
164
59
190
29
189
187
106
84
52
33
151
85
9
179
47
162
11
142
20
72
87
98
126
54
12
127
119
198
18
160
115
5
15
76
78
182
104
77
22
43
4
111
88
67
64
65
68
175
165
186
147
129
19
158
118
196
101
69
140
37

> <PUBCHEM_MMFF94_PARTIAL_CHARGES>
31
1 -0.56
10 -0.57
11 -0.68
12 0.28
13 0.28
14 0.28
15 0.28
16 0.56
17 0.28
18 0.28
19 0.28
2 -0.56
20 0.28
21 0.34
22 0.45
23 0.34
3 -0.68
33 0.4
34 0.4
37 0.4
39 0.4
4 -0.68
40 0.4
41 0.4
42 0.4
45 0.4
5 -0.68
6 -0.68
7 -0.68
8 -0.68
9 -0.68

> <PUBCHEM_EFFECTIVE_ROTOR_COUNT>
9.2

> <PUBCHEM_PHARMACOPHORE_FEATURES>
20
1 1 acceptor
1 10 acceptor
1 11 acceptor
1 11 donor
1 2 acceptor
1 3 acceptor
1 3 donor
1 4 acceptor
1 4 donor
1 5 acceptor
1 5 donor
1 6 acceptor
1 6 donor
1 7 acceptor
1 7 donor
1 8 acceptor
1 8 donor
1 9 acceptor
1 9 donor
6 1 12 13 14 15 16 rings

> <PUBCHEM_HEAVY_ATOM_COUNT>
23

> <PUBCHEM_ATOM_DEF_STEREO_COUNT>
8

> <PUBCHEM_ATOM_UDEF_STEREO_COUNT>
0

> <PUBCHEM_BOND_DEF_STEREO_COUNT>
0

> <PUBCHEM_BOND_UDEF_STEREO_COUNT>
0

> <PUBCHEM_ISOTOPIC_ATOM_COUNT>
0

> <PUBCHEM_COMPONENT_COUNT>
1

> <PUBCHEM_CACTVS_TAUTO_COUNT>
8

> <PUBCHEM_CONFORMER_ID>
000286C900000001

> <PUBCHEM_MMFF94_ENERGY>
52.3703

> <PUBCHEM_FEATURE_SELFOVERLAP>
101.602

> <PUBCHEM_SHAPE_FINGERPRINT>
12346177 29 18201717349340768507
12553582 1 18335995211536719146
12596599 1 18201447977814169298
12788726 201 18193561064933939752
13544592 145 18343022155700199824
13583140 156 15769479989530324952
14251757 5 18337119981471673388
14790565 3 17907300953289434041
15415430 112 18334868211896533328
16752209 62 18189327987963317384
17492 89 18195240255106864387
17870717 6 18272099278852013502
18186145 218 18261099799098340617
193927 3 18130794511358823230
19862831 5 18114181964657919146
20600515 1 18267845273065719920
20645477 70 18199186368179167462
20871999 31 18334863826682313134
21069387 34 17917148402754746669
21307412 95 17915757387454632046
23379529 103 17984983962347787407
23402539 116 18336822005509887160
23557571 272 18201421610777960824
23559900 14 18201996647091327024
3286 77 16415481562688665866
4280585 95 18409168818846549764
44062 13 18343866632143702375
469060 322 9583226284357335591
5283173 99 18411130334199685264
59755656 215 18342172225165014927
9709674 26 18268988863557147721

> <PUBCHEM_SHAPE_MULTIPOLES>
408.77
9.81
2.94
1.4
8.31
0.35
-0.36
-2.16
-4.22
-2.89
-0.06
1.05
-0.39
0.29

> <PUBCHEM_SHAPE_SELFOVERLAP>
816.857

> <PUBCHEM_SHAPE_VOLUME>
237.3

> <PUBCHEM_COORDINATE_TYPE>
2
5
10