191689
  -OEChem-05072106003D

 49 50  0     1  0  0  0  0  0999 V2000
   -5.6052   -1.3939    0.8749 O   0  0  0  0  0  0  0  0  0  0  0  0
   -5.2471   -0.5528   -1.6917 O   0  0  0  0  0  0  0  0  0  0  0  0
   -6.7591    1.0510    0.0402 O   0  0  0  0  0  0  0  0  0  0  0  0
   -3.1525   -2.1682   -1.6881 O   0  0  0  0  0  0  0  0  0  0  0  0
   -5.6848    3.3408    1.6869 O   0  0  0  0  0  0  0  0  0  0  0  0
    4.8934    2.9219   -1.0836 O   0  0  0  0  0  0  0  0  0  0  0  0
   -0.6702   -1.4417   -0.7572 N   0  0  0  0  0  0  0  0  0  0  0  0
    4.6971   -1.8976    1.5225 N   0  0  0  0  0  0  0  0  0  0  0  0
   -4.8084   -0.2183    0.6777 C   0  0  1  0  0  0  0  0  0  0  0  0
   -4.2369   -0.2328   -0.7469 C   0  0  1  0  0  0  0  0  0  0  0  0
    1.7750   -1.7383   -0.6997 C   0  0  0  0  0  0  0  0  0  0  0  0
    3.0275   -1.5436    0.1033 C   0  0  0  0  0  0  0  0  0  0  0  0
   -5.6910    1.0040    0.9939 C   0  0  1  0  0  0  0  0  0  0  0  0
    0.5342   -1.2205    0.0319 C   0  0  0  0  0  0  0  0  0  0  0  0
    3.8821   -0.4063    0.0773 C   0  0  0  0  0  0  0  0  0  0  0  0
   -1.8502   -0.9585   -0.0542 C   0  0  0  0  0  0  0  0  0  0  0  0
   -3.0793   -1.2191   -0.9065 C   0  0  0  0  0  0  0  0  0  0  0  0
    4.9215   -0.6539    0.9766 C   0  0  0  0  0  0  0  0  0  0  0  0
    3.5550   -2.4432    1.0007 C   0  0  0  0  0  0  0  0  0  0  0  0
   -4.9658    2.3489    0.9641 C   0  0  0  0  0  0  0  0  0  0  0  0
    3.8712    0.8140   -0.6272 C   0  0  0  0  0  0  0  0  0  0  0  0
    5.9545    0.2614    1.2076 C   0  0  0  0  0  0  0  0  0  0  0  0
    4.8980    1.7392   -0.4063 C   0  0  0  0  0  0  0  0  0  0  0  0
    5.9226    1.4651    0.4974 C   0  0  0  0  0  0  0  0  0  0  0  0
    3.8182    3.1426   -1.9938 C   0  0  0  0  0  0  0  0  0  0  0  0
   -4.0055   -0.2484    1.4223 H   0  0  0  0  0  0  0  0  0  0  0  0
   -3.8366    0.7491   -1.0200 H   0  0  0  0  0  0  0  0  0  0  0  0
    1.6553   -2.8072   -0.9209 H   0  0  0  0  0  0  0  0  0  0  0  0
    1.8792   -1.2339   -1.6687 H   0  0  0  0  0  0  0  0  0  0  0  0
   -6.1666    0.8659    1.9726 H   0  0  0  0  0  0  0  0  0  0  0  0
    0.4453   -1.7348    0.9974 H   0  0  0  0  0  0  0  0  0  0  0  0
    0.6563   -0.1504    0.2433 H   0  0  0  0  0  0  0  0  0  0  0  0
   -1.7675    0.1187    0.1268 H   0  0  0  0  0  0  0  0  0  0  0  0
   -1.9875   -1.4796    0.8990 H   0  0  0  0  0  0  0  0  0  0  0  0
   -0.5820   -0.9594   -1.6516 H   0  0  0  0  0  0  0  0  0  0  0  0
    3.2212   -3.4220    1.3162 H   0  0  0  0  0  0  0  0  0  0  0  0
   -4.8442    2.7102   -0.0621 H   0  0  0  0  0  0  0  0  0  0  0  0
   -3.9806    2.2593    1.4330 H   0  0  0  0  0  0  0  0  0  0  0  0
    5.2902   -2.3428    2.2091 H   0  0  0  0  0  0  0  0  0  0  0  0
    3.0508    0.9759   -1.3155 H   0  0  0  0  0  0  0  0  0  0  0  0
    6.7527    0.0489    1.9110 H   0  0  0  0  0  0  0  0  0  0  0  0
   -5.0248   -2.1643    0.7526 H   0  0  0  0  0  0  0  0  0  0  0  0
   -5.6518   -1.3942   -1.4198 H   0  0  0  0  0  0  0  0  0  0  0  0
    6.7134    2.1942    0.6582 H   0  0  0  0  0  0  0  0  0  0  0  0
   -7.2174    0.1939    0.0747 H   0  0  0  0  0  0  0  0  0  0  0  0
   -5.1690    4.1634    1.6336 H   0  0  0  0  0  0  0  0  0  0  0  0
    3.9735    4.1289   -2.4434 H   0  0  0  0  0  0  0  0  0  0  0  0
    2.8529    3.1770   -1.4773 H   0  0  0  0  0  0  0  0  0  0  0  0
    3.8268    2.4149   -2.8125 H   0  0  0  0  0  0  0  0  0  0  0  0
  1  9  1  0  0  0  0
  1 42  1  0  0  0  0
  2 10  1  0  0  0  0
  2 43  1  0  0  0  0
  3 13  1  0  0  0  0
  3 45  1  0  0  0  0
  4 17  2  0  0  0  0
  5 20  1  0  0  0  0
  5 46  1  0  0  0  0
  6 23  1  0  0  0  0
  6 25  1  0  0  0  0
  7 14  1  0  0  0  0
  7 16  1  0  0  0  0
  7 35  1  0  0  0  0
  8 18  1  0  0  0  0
  8 19  1  0  0  0  0
  8 39  1  0  0  0  0
  9 10  1  0  0  0  0
  9 13  1  0  0  0  0
  9 26  1  0  0  0  0
 10 17  1  0  0  0  0
 10 27  1  0  0  0  0
 11 12  1  0  0  0  0
 11 14  1  0  0  0  0
 11 28  1  0  0  0  0
 11 29  1  0  0  0  0
 12 15  1  0  0  0  0
 12 19  2  0  0  0  0
 13 20  1  0  0  0  0
 13 30  1  0  0  0  0
 14 31  1  0  0  0  0
 14 32  1  0  0  0  0
 15 18  2  0  0  0  0
 15 21  1  0  0  0  0
 16 17  1  0  0  0  0
 16 33  1  0  0  0  0
 16 34  1  0  0  0  0
 18 22  1  0  0  0  0
 19 36  1  0  0  0  0
 20 37  1  0  0  0  0
 20 38  1  0  0  0  0
 21 23  2  0  0  0  0
 21 40  1  0  0  0  0
 22 24  2  0  0  0  0
 22 41  1  0  0  0  0
 23 24  1  0  0  0  0
 24 44  1  0  0  0  0
 25 47  1  0  0  0  0
 25 48  1  0  0  0  0
 25 49  1  0  0  0  0
M  END
> <PUBCHEM_COMPOUND_CID>
191689

> <PUBCHEM_CONFORMER_RMSD>
1

> <PUBCHEM_CONFORMER_DIVERSEORDER>
1
133
24
204
4
84
36
125
116
160
208
191
232
209
61
290
187
156
137
98
113
166
206
272
118
104
12
231
246
230
57
103
93
189
273
212
17
86
148
101
46
201
5
138
82
248
130
15
229
112
44
283
75
280
267
74
142
219
215
31
151
164
268
225
161
276
274
3
62
159
77
279
81
28
97
251
169
65
141
275
20
153
186
271
253
234
26
29
134
9
173
261
78
50
243
235
291
238
240
163
59
222
39
2
117
63
202
211
242
23
155
58
139
228
269
88
120
264
193
80
285
107
32
73
19
244
180
34
255
145
69
205
223
172
16
286
8
66
60
207
91
25
257
53
226
150
71
114
216
178
110
239
192
68
126
27
254
123
42
111
43
92
185
196
260
47
128
18
236
220
35
131
278
288
127
167
203
198
21
146
64
135
195
158
176
237
183
165
85
241
70
200
30
105
7
143
184
265
124
154
144
109
217
188
162
152
40
179
227
79
99
102
89
41
83
190
266
14
136
54
49
67
233
33
119
94
277
199
100
224
168
38
245
287
76
210
55
37
106
157
281
6
22
177
10
256
90
96
45
108
48
250
87
115
170
197
52
72
95
213
182
252
282
194
140
214
221
218
147
11
149
51
174
13
249
181
129
259
121
171
132
56
122
263
262
270
247
289
284
175
258

> <PUBCHEM_MMFF94_PARTIAL_CHARGES>
34
1 -0.68
10 0.34
11 0.18
12 -0.18
13 0.28
14 0.27
16 0.33
17 0.45
18 -0.15
19 -0.3
2 -0.68
20 0.28
21 -0.15
22 -0.15
23 0.08
24 -0.15
25 0.28
3 -0.68
35 0.36
36 0.15
39 0.27
4 -0.57
40 0.15
41 0.15
42 0.4
43 0.4
44 0.15
45 0.4
46 0.4
5 -0.68
6 -0.36
7 -0.9
8 0.03
9 0.28

> <PUBCHEM_EFFECTIVE_ROTOR_COUNT>
10

> <PUBCHEM_PHARMACOPHORE_FEATURES>
16
1 1 acceptor
1 1 donor
1 2 acceptor
1 2 donor
1 3 acceptor
1 3 donor
1 4 acceptor
1 5 acceptor
1 5 donor
1 6 acceptor
1 7 cation
1 7 donor
1 8 cation
1 8 donor
5 8 12 15 18 19 rings
6 15 18 21 22 23 24 rings

> <PUBCHEM_HEAVY_ATOM_COUNT>
25

> <PUBCHEM_ATOM_DEF_STEREO_COUNT>
3

> <PUBCHEM_ATOM_UDEF_STEREO_COUNT>
0

> <PUBCHEM_BOND_DEF_STEREO_COUNT>
0

> <PUBCHEM_BOND_UDEF_STEREO_COUNT>
0

> <PUBCHEM_ISOTOPIC_ATOM_COUNT>
0

> <PUBCHEM_COMPONENT_COUNT>
1

> <PUBCHEM_CACTVS_TAUTO_COUNT>
10

> <PUBCHEM_CONFORMER_ID>
0002ECC900000001

> <PUBCHEM_MMFF94_ENERGY>
48.1028

> <PUBCHEM_FEATURE_SELFOVERLAP>
81.328

> <PUBCHEM_SHAPE_FINGERPRINT>
100830 2 18339372953669629188
10554248 39 17916010283708541991
12422481 6 18041282063103838781
12596602 18 18187365428786014403
12616971 3 18408877443253264790
12661589 4 11170496671830770781
12975358 362 17841177471453303225
13167372 99 18342173337118530218
13668630 136 10737280230201130010
13785724 45 17835237844877826210
14251764 75 17826241971562140884
15183329 4 18409162229406881821
15348495 7 17530966907913913747
1768 23 18129401348928267297
17844677 252 18040711442085313559
19377110 9 18337389456431506855
21298829 104 18339359777453542456
21302155 148 18202285771278061025
22033318 11 18193001409014563760
22122407 14 18338243755216847241
23569914 152 12459956428297112089
268830 7 18261383451449760966
2748736 6 18058162835360901609
2838139 119 18060132176264782146
312425 54 17312825953089924163
34797466 226 15769489957975553235
3663271 9 18260547827261131267
397830 11 17458352986978354379
44249763 50 16486387963430193379
465052 167 11602822380756604970
5104073 3 17968095343253643451
57724786 102 18408044009286640782
7062679 6 18131069320867699539
7970288 3 8285662882987960336
960060 61 11600006565816535498

> <PUBCHEM_SHAPE_MULTIPOLES>
469.31
19.78
3.32
1.56
15.67
2.43
0.22
9.84
-5.23
-1.35
0.23
0.43
0.47
-4.58

> <PUBCHEM_SHAPE_SELFOVERLAP>
973.219

> <PUBCHEM_SHAPE_VOLUME>
268.7

> <PUBCHEM_COORDINATE_TYPE>
2
5
10