21601247
  -OEChem-05072106003D

 22 21  0     1  0  0  0  0  0999 V2000
    2.6747    0.7738    0.1574 F   0  0  0  0  0  0  0  0  0  0  0  0
    0.5705    0.0154    1.7765 O   0  0  0  0  0  0  0  0  0  0  0  0
    0.4603    1.5703   -0.6389 O   0  0  0  0  0  0  0  0  0  0  0  0
   -2.0996    1.3393   -0.0024 O   0  0  0  0  0  0  0  0  0  0  0  0
   -3.6219   -0.8554    0.0523 O   0  0  0  0  0  0  0  0  0  0  0  0
    0.7794   -0.5575    0.4802 C   0  0  1  0  0  0  0  0  0  0  0  0
   -0.0244    0.2377   -0.5565 C   0  0  1  0  0  0  0  0  0  0  0  0
    2.2939   -0.5375    0.2487 C   0  0  1  0  0  0  0  0  0  0  0  0
   -1.5201    0.2815   -0.2500 C   0  0  0  0  0  0  0  0  0  0  0  0
    2.7394   -1.2207   -1.0314 C   0  0  0  0  0  0  0  0  0  0  0  0
   -2.2521   -1.0470   -0.2359 C   0  0  0  0  0  0  0  0  0  0  0  0
    0.4408   -1.5981    0.5259 H   0  0  0  0  0  0  0  0  0  0  0  0
    0.0840   -0.2048   -1.5520 H   0  0  0  0  0  0  0  0  0  0  0  0
    2.8195   -0.9619    1.1108 H   0  0  0  0  0  0  0  0  0  0  0  0
    2.3493   -0.7075   -1.9153 H   0  0  0  0  0  0  0  0  0  0  0  0
    3.8311   -1.1893   -1.1090 H   0  0  0  0  0  0  0  0  0  0  0  0
    2.4195   -2.2665   -1.0557 H   0  0  0  0  0  0  0  0  0  0  0  0
   -1.8294   -1.6935    0.5360 H   0  0  0  0  0  0  0  0  0  0  0  0
   -2.1576   -1.5149   -1.2196 H   0  0  0  0  0  0  0  0  0  0  0  0
   -0.3614   -0.1232    2.0157 H   0  0  0  0  0  0  0  0  0  0  0  0
    0.4372    1.9495    0.2564 H   0  0  0  0  0  0  0  0  0  0  0  0
   -4.0467   -1.7296    0.0246 H   0  0  0  0  0  0  0  0  0  0  0  0
  1  8  1  0  0  0  0
  2  6  1  0  0  0  0
  2 20  1  0  0  0  0
  3  7  1  0  0  0  0
  3 21  1  0  0  0  0
  4  9  2  0  0  0  0
  5 11  1  0  0  0  0
  5 22  1  0  0  0  0
  6  7  1  0  0  0  0
  6  8  1  0  0  0  0
  6 12  1  0  0  0  0
  7  9  1  0  0  0  0
  7 13  1  0  0  0  0
  8 10  1  0  0  0  0
  8 14  1  0  0  0  0
  9 11  1  0  0  0  0
 10 15  1  0  0  0  0
 10 16  1  0  0  0  0
 10 17  1  0  0  0  0
 11 18  1  0  0  0  0
 11 19  1  0  0  0  0
M  END
> <PUBCHEM_COMPOUND_CID>
21601247

> <PUBCHEM_CONFORMER_RMSD>
0.6

> <PUBCHEM_CONFORMER_DIVERSEORDER>
1
21
7
20
50
85
95
55
51
8
74
76
84
57
67
44
9
99
37
38
17
68
82
56
78
90
60
89
101
81
64
13
12
98
23
65
18
39
83
72
15
92
80
4
77
91
49
16
26
52
62
36
69
28
70
100
25
58
88
10
45
41
53
102
59
87
27
11
75
48
79
2
24
42
93
97
34
33
46
94
6
14
54
61
86
35
71
29
47
3
5
73
40
43
32
31
30
66
96
22
19
63

> <PUBCHEM_MMFF94_PARTIAL_CHARGES>
13
1 -0.34
11 0.34
2 -0.68
20 0.4
21 0.4
22 0.4
3 -0.68
4 -0.57
5 -0.68
6 0.28
7 0.34
8 0.34
9 0.45

> <PUBCHEM_EFFECTIVE_ROTOR_COUNT>
4

> <PUBCHEM_PHARMACOPHORE_FEATURES>
7
1 2 acceptor
1 2 donor
1 3 acceptor
1 3 donor
1 4 acceptor
1 5 acceptor
1 5 donor

> <PUBCHEM_HEAVY_ATOM_COUNT>
11

> <PUBCHEM_ATOM_DEF_STEREO_COUNT>
3

> <PUBCHEM_ATOM_UDEF_STEREO_COUNT>
0

> <PUBCHEM_BOND_DEF_STEREO_COUNT>
0

> <PUBCHEM_BOND_UDEF_STEREO_COUNT>
0

> <PUBCHEM_ISOTOPIC_ATOM_COUNT>
0

> <PUBCHEM_COMPONENT_COUNT>
1

> <PUBCHEM_CACTVS_TAUTO_COUNT>
8

> <PUBCHEM_CONFORMER_ID>
01499BDF00000001

> <PUBCHEM_MMFF94_ENERGY>
10.5699

> <PUBCHEM_FEATURE_SELFOVERLAP>
35.544

> <PUBCHEM_SHAPE_FINGERPRINT>
10857977 72 18337376214761840497
12897270 3 18334293124202230742
12932764 1 17749951046606986293
14128692 85 18409173237534317615
15310529 11 17917708011154961884
16945 1 16877951524581074382
21293036 1 16805331019202466814
230 275 10303822011529686175
23380061 451 17418381319396978095
23552423 10 18260551082613810310
29004967 10 17060329700392905698
3248919 1 18129931291614490852
449060 23 18408323310941373295
5084963 1 18201719561296522043

> <PUBCHEM_SHAPE_MULTIPOLES>
195.62
4.6
1.32
1.02
1.33
0.16
-0.31
-1.52
0.45
0.13
0.26
-0.42
-0.01
0.28

> <PUBCHEM_SHAPE_SELFOVERLAP>
372.893

> <PUBCHEM_SHAPE_VOLUME>
119.4

> <PUBCHEM_COORDINATE_TYPE>
2
5
10