22213407
  -OEChem-05072106003D

 27 26  0     1  0  0  0  0  0999 V2000
    0.7141    0.0433    1.6505 O   0  0  0  0  0  0  0  0  0  0  0  0
    2.4222   -0.2748   -1.5847 O   0  0  0  0  0  0  0  0  0  0  0  0
    0.2483    2.1600   -0.2403 O   0  0  0  0  0  0  0  0  0  0  0  0
    4.5388   -0.7951    0.1453 O   0  0  0  0  0  0  0  0  0  0  0  0
   -3.6349   -0.6282    0.0786 O   0  0  0  0  0  0  0  0  0  0  0  0
   -2.2430    1.6184    0.4195 O   0  0  0  0  0  0  0  0  0  0  0  0
    0.8231   -0.1186    0.2394 C   0  0  2  0  0  0  0  0  0  0  0  0
    2.2973    0.0005   -0.1900 C   0  0  1  0  0  0  0  0  0  0  0  0
   -0.1544    0.8184   -0.4865 C   0  0  1  0  0  0  0  0  0  0  0  0
    3.1914   -0.9825    0.5665 C   0  0  0  0  0  0  0  0  0  0  0  0
   -1.6210    0.6803   -0.0811 C   0  0  0  0  0  0  0  0  0  0  0  0
   -2.2895   -0.6536   -0.3538 C   0  0  0  0  0  0  0  0  0  0  0  0
   -4.2924   -1.8680   -0.1634 C   0  0  0  0  0  0  0  0  0  0  0  0
    0.5108   -1.1481    0.0220 H   0  0  0  0  0  0  0  0  0  0  0  0
    2.6634    1.0198   -0.0191 H   0  0  0  0  0  0  0  0  0  0  0  0
   -0.1030    0.6625   -1.5693 H   0  0  0  0  0  0  0  0  0  0  0  0
    2.9140   -2.0171    0.3392 H   0  0  0  0  0  0  0  0  0  0  0  0
    3.1455   -0.8215    1.6475 H   0  0  0  0  0  0  0  0  0  0  0  0
   -2.2464   -0.8438   -1.4313 H   0  0  0  0  0  0  0  0  0  0  0  0
   -1.7509   -1.4346    0.1908 H   0  0  0  0  0  0  0  0  0  0  0  0
   -0.1961   -0.1790    1.9088 H   0  0  0  0  0  0  0  0  0  0  0  0
    3.3635   -0.1939   -1.8151 H   0  0  0  0  0  0  0  0  0  0  0  0
    0.2692    2.2915    0.7233 H   0  0  0  0  0  0  0  0  0  0  0  0
    5.0821   -1.4347    0.6365 H   0  0  0  0  0  0  0  0  0  0  0  0
   -5.3238   -1.7843    0.1890 H   0  0  0  0  0  0  0  0  0  0  0  0
   -3.7989   -2.6759    0.3854 H   0  0  0  0  0  0  0  0  0  0  0  0
   -4.3048   -2.0913   -1.2346 H   0  0  0  0  0  0  0  0  0  0  0  0
  1  7  1  0  0  0  0
  1 21  1  0  0  0  0
  2  8  1  0  0  0  0
  2 22  1  0  0  0  0
  3  9  1  0  0  0  0
  3 23  1  0  0  0  0
  4 10  1  0  0  0  0
  4 24  1  0  0  0  0
  5 12  1  0  0  0  0
  5 13  1  0  0  0  0
  6 11  2  0  0  0  0
  7  8  1  0  0  0  0
  7  9  1  0  0  0  0
  7 14  1  0  0  0  0
  8 10  1  0  0  0  0
  8 15  1  0  0  0  0
  9 11  1  0  0  0  0
  9 16  1  0  0  0  0
 10 17  1  0  0  0  0
 10 18  1  0  0  0  0
 11 12  1  0  0  0  0
 12 19  1  0  0  0  0
 12 20  1  0  0  0  0
 13 25  1  0  0  0  0
 13 26  1  0  0  0  0
 13 27  1  0  0  0  0
M  END
> <PUBCHEM_COMPOUND_CID>
22213407

> <PUBCHEM_CONFORMER_RMSD>
0.8

> <PUBCHEM_CONFORMER_DIVERSEORDER>
1
51
72
82
71
53
12
7
108
95
5
75
80
3
2
90
119
94
131
23
121
102
124
57
58
29
113
79
17
98
37
25
15
54
105
19
110
122
55
6
100
30
97
27
120
61
137
45
46
107
89
28
32
9
56
84
129
101
76
18
127
112
59
4
133
116
33
16
36
115
139
62
132
66
43
77
21
70
14
86
31
40
63
83
41
130
118
44
13
138
39
104
35
69
126
42
87
91
136
85
117
10
88
73
93
128
64
50
20
74
22
34
67
8
134
60
125
123
109
47
103
81
78
135
48
99
24
38
52
65
26
11
106
68
92
111
96
114
49

> <PUBCHEM_MMFF94_PARTIAL_CHARGES>
17
1 -0.68
10 0.28
11 0.45
12 0.34
13 0.28
2 -0.68
21 0.4
22 0.4
23 0.4
24 0.4
3 -0.68
4 -0.68
5 -0.56
6 -0.57
7 0.28
8 0.28
9 0.34

> <PUBCHEM_EFFECTIVE_ROTOR_COUNT>
6

> <PUBCHEM_PHARMACOPHORE_FEATURES>
10
1 1 acceptor
1 1 donor
1 2 acceptor
1 2 donor
1 3 acceptor
1 3 donor
1 4 acceptor
1 4 donor
1 5 acceptor
1 6 acceptor

> <PUBCHEM_HEAVY_ATOM_COUNT>
13

> <PUBCHEM_ATOM_DEF_STEREO_COUNT>
3

> <PUBCHEM_ATOM_UDEF_STEREO_COUNT>
0

> <PUBCHEM_BOND_DEF_STEREO_COUNT>
0

> <PUBCHEM_BOND_UDEF_STEREO_COUNT>
0

> <PUBCHEM_ISOTOPIC_ATOM_COUNT>
0

> <PUBCHEM_COMPONENT_COUNT>
1

> <PUBCHEM_CACTVS_TAUTO_COUNT>
10

> <PUBCHEM_CONFORMER_ID>
0152F31F00000001

> <PUBCHEM_MMFF94_ENERGY>
22.037

> <PUBCHEM_FEATURE_SELFOVERLAP>
50.782

> <PUBCHEM_SHAPE_FINGERPRINT>
11769659 78 18410854391018902279
11806522 49 18262516012861058684
12251169 10 15410893002731473519
14252887 29 17203616986183066862
14993402 34 15936695887299971154
17844478 74 17275383170947764768
18186145 218 13695594346926649805
19422 9 18333736805504052717
200 152 17530683191022140610
20112054 13 12535350107858655211
20279233 1 17346595227484847453
20281407 28 18202570579033192879
20645477 70 18046615974884057279
20671657 53 18334294314203557933
20871998 184 18130501942549723893
20871998 22 18201729439599990391
20871999 31 18114454587680451309
21061003 4 16702291339546505968
21119208 17 16081364163630896391
21256008 23 15697995241250947818
22485316 2 18408316670673753767
23402539 116 18114176389969580534
23402655 69 15358240607860747935
23557571 272 18200312100661627812
449060 23 18410856572904707535
7364860 26 18055915643535545281

> <PUBCHEM_SHAPE_MULTIPOLES>
232.32
7.2
1.63
0.99
0.72
0.45
-0.02
-4.92
0.19
1.12
0
-0.54
-0.04
-0.33

> <PUBCHEM_SHAPE_SELFOVERLAP>
438.941

> <PUBCHEM_SHAPE_VOLUME>
143.6

> <PUBCHEM_COORDINATE_TYPE>
2
5
10