22826194
  -OEChem-05072106003D

 28 27  0     1  0  0  0  0  0999 V2000
    3.5694    0.4828    0.0066 P   0  0  0  0  0  0  0  0  0  0  0  0
   -1.9826    0.0497    1.6678 O   0  0  0  0  0  0  0  0  0  0  0  0
   -2.2127   -2.0289   -0.3400 O   0  0  0  0  0  0  0  0  0  0  0  0
   -3.5425    1.0036   -1.5095 O   0  0  0  0  0  0  0  0  0  0  0  0
    2.3114   -0.5304    0.1420 O   0  0  0  0  0  0  0  0  0  0  0  0
    0.3013   -2.2648    0.4181 O   0  0  0  0  0  0  0  0  0  0  0  0
    3.0591    1.8275    0.7458 O   0  0  0  0  0  0  0  0  0  0  0  0
    3.5451    0.8870   -1.5590 O   0  0  0  0  0  0  0  0  0  0  0  0
    4.8772   -0.0636    0.4999 O   0  0  0  0  0  0  0  0  0  0  0  0
   -2.0198    0.3273    0.2667 C   0  0  1  0  0  0  0  0  0  0  0  0
   -1.4272   -0.8589   -0.5107 C   0  0  1  0  0  0  0  0  0  0  0  0
   -3.4722    0.6493   -0.1310 C   0  0  1  0  0  0  0  0  0  0  0  0
    0.0045   -1.1820   -0.0878 C   0  0  0  0  0  0  0  0  0  0  0  0
   -4.0526    1.7965    0.6901 C   0  0  0  0  0  0  0  0  0  0  0  0
    1.0415   -0.0951   -0.2993 C   0  0  0  0  0  0  0  0  0  0  0  0
   -1.4047    1.2168    0.0929 H   0  0  0  0  0  0  0  0  0  0  0  0
   -1.4072   -0.6411   -1.5839 H   0  0  0  0  0  0  0  0  0  0  0  0
   -4.1056   -0.2324    0.0232 H   0  0  0  0  0  0  0  0  0  0  0  0
   -3.4639    2.7102    0.5524 H   0  0  0  0  0  0  0  0  0  0  0  0
   -4.0867    1.5582    1.7572 H   0  0  0  0  0  0  0  0  0  0  0  0
   -5.0711    2.0276    0.3591 H   0  0  0  0  0  0  0  0  0  0  0  0
    1.0794    0.1403   -1.3664 H   0  0  0  0  0  0  0  0  0  0  0  0
    0.7548    0.7884    0.2743 H   0  0  0  0  0  0  0  0  0  0  0  0
   -2.6178   -0.6626    1.8514 H   0  0  0  0  0  0  0  0  0  0  0  0
   -2.2387   -2.2396    0.6085 H   0  0  0  0  0  0  0  0  0  0  0  0
   -4.4773    1.1605   -1.7265 H   0  0  0  0  0  0  0  0  0  0  0  0
    3.6850    2.5744    0.8576 H   0  0  0  0  0  0  0  0  0  0  0  0
    4.2760    1.4328   -1.9196 H   0  0  0  0  0  0  0  0  0  0  0  0
  1  5  1  0  0  0  0
  1  7  1  0  0  0  0
  1  8  1  0  0  0  0
  1  9  2  0  0  0  0
  2 10  1  0  0  0  0
  2 24  1  0  0  0  0
  3 11  1  0  0  0  0
  3 25  1  0  0  0  0
  4 12  1  0  0  0  0
  4 26  1  0  0  0  0
  5 15  1  0  0  0  0
  6 13  2  0  0  0  0
  7 27  1  0  0  0  0
  8 28  1  0  0  0  0
 10 11  1  0  0  0  0
 10 12  1  0  0  0  0
 10 16  1  0  0  0  0
 11 13  1  0  0  0  0
 11 17  1  0  0  0  0
 12 14  1  0  0  0  0
 12 18  1  0  0  0  0
 13 15  1  0  0  0  0
 14 19  1  0  0  0  0
 14 20  1  0  0  0  0
 14 21  1  0  0  0  0
 15 22  1  0  0  0  0
 15 23  1  0  0  0  0
M  END
> <PUBCHEM_COMPOUND_CID>
22826194

> <PUBCHEM_CONFORMER_RMSD>
0.8

> <PUBCHEM_CONFORMER_DIVERSEORDER>
1
102
2
156
50
112
47
81
126
116
141
19
26
57
127
78
23
106
91
66
109
103
87
90
143
97
114
150
76
75
163
6
152
119
39
4
61
149
153
162
142
49
85
14
98
140
52
21
164
138
31
18
139
166
30
69
82
5
145
154
146
48
36
27
62
104
159
105
37
28
117
86
29
121
157
147
58
100
10
80
136
118
64
68
59
133
71
67
130
93
79
72
17
132
96
25
122
56
94
8
165
101
70
42
46
134
55
107
113
131
89
34
123
15
65
74
125
160
43
53
24
148
3
12
11
92
9
45
54
44
124
88
155
151
161
99
135
120
40
83
129
137
158
35
38
51
144
60
16
32
13
33
84
73
108
95
7
110
22
77
115
128
41
63
111
20

> <PUBCHEM_MMFF94_PARTIAL_CHARGES>
19
1 1.51
10 0.28
11 0.34
12 0.28
13 0.45
15 0.34
2 -0.68
24 0.4
25 0.4
26 0.4
27 0.5
28 0.5
3 -0.68
4 -0.68
5 -0.55
6 -0.57
7 -0.77
8 -0.77
9 -0.7

> <PUBCHEM_EFFECTIVE_ROTOR_COUNT>
6

> <PUBCHEM_PHARMACOPHORE_FEATURES>
11
1 2 acceptor
1 2 donor
1 3 acceptor
1 3 donor
1 4 acceptor
1 4 donor
1 6 acceptor
1 7 acceptor
1 8 acceptor
1 9 acceptor
4 1 7 8 9 anion

> <PUBCHEM_HEAVY_ATOM_COUNT>
15

> <PUBCHEM_ATOM_DEF_STEREO_COUNT>
3

> <PUBCHEM_ATOM_UDEF_STEREO_COUNT>
0

> <PUBCHEM_BOND_DEF_STEREO_COUNT>
0

> <PUBCHEM_BOND_UDEF_STEREO_COUNT>
0

> <PUBCHEM_ISOTOPIC_ATOM_COUNT>
0

> <PUBCHEM_COMPONENT_COUNT>
1

> <PUBCHEM_CACTVS_TAUTO_COUNT>
9

> <PUBCHEM_CONFORMER_ID>
015C4CD200000001

> <PUBCHEM_MMFF94_ENERGY>
-13.2246

> <PUBCHEM_FEATURE_SELFOVERLAP>
55.875

> <PUBCHEM_SHAPE_FINGERPRINT>
11543360 7 15841259428437854845
122479 349 18334583425389293827
12251169 10 15791741801484142655
14123255 52 18341613672762349137
14123260 362 18341342144650418605
14252887 29 8142083182733514460
14897335 6 18412822460755797695
15342168 16 18337121051430453757
15775835 57 18411138026031853419
1741750 31 18342741797457028187
17834072 32 18336836376217888812
17834072 8 18272095955359651222
18186145 218 17988373640889377970
19107657 9 18334584559255547740
20112054 13 17967533475942612310
20281407 28 11025795405270125261
20300324 65 16702296854136963681
20645477 56 18341618126432341039
20645477 70 15841283566734126020
20671657 53 11815890137511598435
21499 59 18341327791349620455
21524375 3 18408882927773345415
23402539 116 17418085499493262396
23402655 69 17131836417293033752
23500284 214 18410580561147327657
23557571 272 17203322376932516855
23559900 14 18131350809246302802
4028521 119 17917996057305372817
548570 60 18335419049799931197
6430166 295 18409445873769091172

> <PUBCHEM_SHAPE_MULTIPOLES>
265.59
8.52
1.86
1.11
4.44
0.48
0.15
-4.75
0.23
-0.73
-0.2
-0.26
-0.28
-0.24

> <PUBCHEM_SHAPE_SELFOVERLAP>
496.664

> <PUBCHEM_SHAPE_VOLUME>
166.4

> <PUBCHEM_COORDINATE_TYPE>
2
5
10