22845704
  -OEChem-05072106003D

 25 24  0     1  0  0  0  0  0999 V2000
   -0.2123    0.0718   -1.4736 O   0  0  0  0  0  0  0  0  0  0  0  0
    1.1631   -1.4993    1.5085 O   0  0  0  0  0  0  0  0  0  0  0  0
   -1.7315   -2.0541   -0.3397 O   0  0  0  0  0  0  0  0  0  0  0  0
   -3.5363   -0.1647   -0.7764 O   0  0  0  0  0  0  0  0  0  0  0  0
   -3.7588    2.2388    0.3681 O   0  0  0  0  0  0  0  0  0  0  0  0
    2.7828    0.4902    0.3004 N   0  0  0  0  0  0  0  0  0  0  0  0
    3.8906    0.9606   -0.0113 N   0  3  0  0  0  0  0  0  0  0  0  0
    4.9056    1.3995   -0.2912 N   0  5  0  0  0  0  0  0  0  0  0  0
   -0.1423   -0.2577   -0.0788 C   0  0  2  0  0  0  0  0  0  0  0  0
    1.0383   -1.2289    0.1074 C   0  0  1  0  0  0  0  0  0  0  0  0
   -1.5017   -0.8289    0.3409 C   0  0  1  0  0  0  0  0  0  0  0  0
    2.3837   -0.7257   -0.4152 C   0  0  0  0  0  0  0  0  0  0  0  0
   -2.6505    0.1279    0.0276 C   0  0  0  0  0  0  0  0  0  0  0  0
   -2.6306    1.4705    0.7333 C   0  0  0  0  0  0  0  0  0  0  0  0
    0.0596    0.6650    0.4766 H   0  0  0  0  0  0  0  0  0  0  0  0
    0.8326   -2.1775   -0.4032 H   0  0  0  0  0  0  0  0  0  0  0  0
   -1.5311   -1.0390    1.4147 H   0  0  0  0  0  0  0  0  0  0  0  0
    2.3325   -0.5349   -1.4933 H   0  0  0  0  0  0  0  0  0  0  0  0
    3.1424   -1.5002   -0.2440 H   0  0  0  0  0  0  0  0  0  0  0  0
   -0.8009    0.8392   -1.5696 H   0  0  0  0  0  0  0  0  0  0  0  0
   -2.6488    1.3038    1.8137 H   0  0  0  0  0  0  0  0  0  0  0  0
   -1.7352    2.0267    0.4484 H   0  0  0  0  0  0  0  0  0  0  0  0
    0.4083   -2.0525    1.7709 H   0  0  0  0  0  0  0  0  0  0  0  0
   -1.6420   -1.8859   -1.2936 H   0  0  0  0  0  0  0  0  0  0  0  0
   -3.7129    3.0722    0.8669 H   0  0  0  0  0  0  0  0  0  0  0  0
  1  9  1  0  0  0  0
  1 20  1  0  0  0  0
  2 10  1  0  0  0  0
  2 23  1  0  0  0  0
  3 11  1  0  0  0  0
  3 24  1  0  0  0  0
  4 13  2  0  0  0  0
  5 14  1  0  0  0  0
  5 25  1  0  0  0  0
  6  7  2  0  0  0  0
  6 12  1  0  0  0  0
  7  8  2  0  0  0  0
  9 10  1  0  0  0  0
  9 11  1  0  0  0  0
  9 15  1  0  0  0  0
 10 12  1  0  0  0  0
 10 16  1  0  0  0  0
 11 13  1  0  0  0  0
 11 17  1  0  0  0  0
 12 18  1  0  0  0  0
 12 19  1  0  0  0  0
 13 14  1  0  0  0  0
 14 21  1  0  0  0  0
 14 22  1  0  0  0  0
M  CHG  2   7   1   8  -1
M  END
> <PUBCHEM_COMPOUND_CID>
22845704

> <PUBCHEM_CONFORMER_RMSD>
0.8

> <PUBCHEM_CONFORMER_DIVERSEORDER>
1
23
116
101
4
171
92
37
161
10
14
126
177
95
135
82
166
51
104
145
119
122
9
88
94
13
111
68
118
147
170
106
58
130
28
55
80
22
18
168
174
107
62
110
113
97
33
61
162
102
143
91
63
39
134
154
89
144
2
164
115
140
163
76
103
40
41
173
77
7
15
31
160
83
99
21
67
26
98
45
117
43
148
48
100
29
19
72
178
132
56
85
87
90
125
53
78
159
50
8
35
133
69
121
169
16
73
114
109
175
42
172
105
6
74
81
44
59
54
5
25
79
52
142
157
138
30
124
156
150
46
167
153
131
112
136
66
96
93
27
86
12
49
3
123
155
120
179
60
158
152
149
47
84
176
75
57
165
32
139
141
17
127
151
137
70
64
36
24
108
71
38
146
20
11
34
129
65
128

> <PUBCHEM_MMFF94_PARTIAL_CHARGES>
18
1 -0.68
10 0.28
11 0.34
12 0.25
13 0.45
14 0.34
2 -0.68
20 0.4
23 0.4
24 0.4
25 0.4
3 -0.68
4 -0.57
5 -0.68
6 -0.56
7 0.69
8 -0.37
9 0.28

> <PUBCHEM_EFFECTIVE_ROTOR_COUNT>
6

> <PUBCHEM_PHARMACOPHORE_FEATURES>
9
1 1 acceptor
1 1 donor
1 2 acceptor
1 2 donor
1 3 acceptor
1 3 donor
1 4 acceptor
1 5 acceptor
1 5 donor

> <PUBCHEM_HEAVY_ATOM_COUNT>
14

> <PUBCHEM_ATOM_DEF_STEREO_COUNT>
3

> <PUBCHEM_ATOM_UDEF_STEREO_COUNT>
0

> <PUBCHEM_BOND_DEF_STEREO_COUNT>
0

> <PUBCHEM_BOND_UDEF_STEREO_COUNT>
0

> <PUBCHEM_ISOTOPIC_ATOM_COUNT>
0

> <PUBCHEM_COMPONENT_COUNT>
1

> <PUBCHEM_CACTVS_TAUTO_COUNT>
51

> <PUBCHEM_CONFORMER_ID>
015C990800000001

> <PUBCHEM_MMFF94_ENERGY>
16.2636

> <PUBCHEM_FEATURE_SELFOVERLAP>
45.697

> <PUBCHEM_SHAPE_FINGERPRINT>
11132069 177 17458062685801489838
12346645 44 18335419071416926154
12932764 1 17822855247566281511
14123260 362 18337121141186728580
14251710 61 8790878584235089632
15775835 57 18337676304427700345
17834072 32 18269560429600775185
201361 129 18335421206052647762
20711983 171 18059856121283708333
22485316 2 9799422100718155484
23402539 116 18272082847035002951
23557571 272 17916596456349275767
474 4 18041283244050805628
8199 26 18340773632693548905

> <PUBCHEM_SHAPE_MULTIPOLES>
243.82
7.38
1.87
0.96
4.98
0.27
0.02
5.21
-0.35
-0.69
0.28
-0.07
-0.17
-0.63

> <PUBCHEM_SHAPE_SELFOVERLAP>
468.87

> <PUBCHEM_SHAPE_VOLUME>
146.7

> <PUBCHEM_COORDINATE_TYPE>
2
5
10