23306082
  -OEChem-05072106003D

 34 33  0     1  0  0  0  0  0999 V2000
   -5.2979   -0.8199    0.3434 P   0  0  0  0  0  0  0  0  0  0  0  0
    5.0887   -1.1202    0.0761 P   0  0  0  0  0  0  0  0  0  0  0  0
   -0.0597   -0.5850   -1.0313 O   0  0  0  0  0  0  0  0  0  0  0  0
   -2.0321    1.4506   -1.6185 O   0  0  0  0  0  0  0  0  0  0  0  0
    0.1288    2.7830    0.3147 O   0  0  0  0  0  0  0  0  0  0  0  0
   -4.0976    0.2384    0.1208 O   0  0  0  0  0  0  0  0  0  0  0  0
    4.0657    0.0599    0.5095 O   0  0  0  0  0  0  0  0  0  0  0  0
    2.4407    2.0113    1.3172 O   0  0  0  0  0  0  0  0  0  0  0  0
   -5.2157   -1.7351   -0.9873 O   0  0  0  0  0  0  0  0  0  0  0  0
   -4.7391   -1.7988    1.5031 O   0  0  0  0  0  0  0  0  0  0  0  0
   -6.6429   -0.2103    0.6112 O   0  0  0  0  0  0  0  0  0  0  0  0
    4.1726   -2.4495    0.1707 O   0  0  0  0  0  0  0  0  0  0  0  0
    5.2686   -0.9051   -1.5166 O   0  0  0  0  0  0  0  0  0  0  0  0
    6.3644   -1.1723    0.8647 O   0  0  0  0  0  0  0  0  0  0  0  0
   -0.3633    0.4830   -0.1388 C   0  0  2  0  0  0  0  0  0  0  0  0
   -1.8326    0.9104   -0.3127 C   0  0  2  0  0  0  0  0  0  0  0  0
    0.6730    1.6090   -0.2754 C   0  0  2  0  0  0  0  0  0  0  0  0
   -2.7918   -0.2674   -0.1383 C   0  0  0  0  0  0  0  0  0  0  0  0
    2.0308    1.3380    0.3705 C   0  0  0  0  0  0  0  0  0  0  0  0
    2.8393    0.1802   -0.1828 C   0  0  0  0  0  0  0  0  0  0  0  0
   -0.2611    0.0744    0.8759 H   0  0  0  0  0  0  0  0  0  0  0  0
   -2.0931    1.6972    0.4035 H   0  0  0  0  0  0  0  0  0  0  0  0
    0.8563    1.8222   -1.3353 H   0  0  0  0  0  0  0  0  0  0  0  0
   -2.4887   -0.8802    0.7162 H   0  0  0  0  0  0  0  0  0  0  0  0
   -2.8242   -0.8874   -1.0398 H   0  0  0  0  0  0  0  0  0  0  0  0
    2.2698   -0.7416   -0.0502 H   0  0  0  0  0  0  0  0  0  0  0  0
    3.0271    0.3655   -1.2438 H   0  0  0  0  0  0  0  0  0  0  0  0
   -0.5498   -1.3716   -0.7389 H   0  0  0  0  0  0  0  0  0  0  0  0
   -1.7366    0.7852   -2.2634 H   0  0  0  0  0  0  0  0  0  0  0  0
    0.7183    3.5234    0.0909 H   0  0  0  0  0  0  0  0  0  0  0  0
   -5.9097   -2.4108   -1.1422 H   0  0  0  0  0  0  0  0  0  0  0  0
   -5.3274   -2.4994    1.8569 H   0  0  0  0  0  0  0  0  0  0  0  0
    4.5932   -3.3260    0.0405 H   0  0  0  0  0  0  0  0  0  0  0  0
    5.9103   -1.4663   -2.0017 H   0  0  0  0  0  0  0  0  0  0  0  0
  1  6  1  0  0  0  0
  1  9  1  0  0  0  0
  1 10  1  0  0  0  0
  1 11  2  0  0  0  0
  2  7  1  0  0  0  0
  2 12  1  0  0  0  0
  2 13  1  0  0  0  0
  2 14  2  0  0  0  0
  3 15  1  0  0  0  0
  3 28  1  0  0  0  0
  4 16  1  0  0  0  0
  4 29  1  0  0  0  0
  5 17  1  0  0  0  0
  5 30  1  0  0  0  0
  6 18  1  0  0  0  0
  7 20  1  0  0  0  0
  8 19  2  0  0  0  0
  9 31  1  0  0  0  0
 10 32  1  0  0  0  0
 12 33  1  0  0  0  0
 13 34  1  0  0  0  0
 15 16  1  0  0  0  0
 15 17  1  0  0  0  0
 15 21  1  0  0  0  0
 16 18  1  0  0  0  0
 16 22  1  0  0  0  0
 17 19  1  0  0  0  0
 17 23  1  0  0  0  0
 18 24  1  0  0  0  0
 18 25  1  0  0  0  0
 19 20  1  0  0  0  0
 20 26  1  0  0  0  0
 20 27  1  0  0  0  0
M  END
> <PUBCHEM_COMPOUND_CID>
23306082

> <PUBCHEM_CONFORMER_RMSD>
0.8

> <PUBCHEM_CONFORMER_DIVERSEORDER>
1
12
65
122
81
10
44
9
87
70
33
69
120
83
60
121
94
5
37
22
16
58
53
63
104
115
107
118
80
36
86
98
19
23
17
96
4
124
88
93
35
74
109
61
68
27
106
112
103
46
73
82
90
84
26
125
110
30
66
34
40
20
117
108
3
41
59
89
11
29
18
2
116
123
55
111
78
91
119
101
102
56
8
24
95
114
52
100
99
45
79
105
47
38
72
71
54
77
31
14
51
13
49
97
43
42
21
48
67
75
64
76
15
85
50
32
25
39
113
57
7
28
92
6
62

> <PUBCHEM_MMFF94_PARTIAL_CHARGES>
27
1 1.51
10 -0.77
11 -0.7
12 -0.77
13 -0.77
14 -0.7
15 0.28
16 0.28
17 0.34
18 0.28
19 0.45
2 1.51
20 0.34
28 0.4
29 0.4
3 -0.68
30 0.4
31 0.5
32 0.5
33 0.5
34 0.5
4 -0.68
5 -0.68
6 -0.55
7 -0.55
8 -0.57
9 -0.77

> <PUBCHEM_EFFECTIVE_ROTOR_COUNT>
9

> <PUBCHEM_PHARMACOPHORE_FEATURES>
15
1 10 acceptor
1 11 acceptor
1 12 acceptor
1 13 acceptor
1 14 acceptor
1 3 acceptor
1 3 donor
1 4 acceptor
1 4 donor
1 5 acceptor
1 5 donor
1 8 acceptor
1 9 acceptor
4 1 9 10 11 anion
4 2 12 13 14 anion

> <PUBCHEM_HEAVY_ATOM_COUNT>
20

> <PUBCHEM_ATOM_DEF_STEREO_COUNT>
3

> <PUBCHEM_ATOM_UDEF_STEREO_COUNT>
0

> <PUBCHEM_BOND_DEF_STEREO_COUNT>
0

> <PUBCHEM_BOND_UDEF_STEREO_COUNT>
0

> <PUBCHEM_ISOTOPIC_ATOM_COUNT>
0

> <PUBCHEM_COMPONENT_COUNT>
1

> <PUBCHEM_CACTVS_TAUTO_COUNT>
5

> <PUBCHEM_CONFORMER_ID>
01639F6200000001

> <PUBCHEM_MMFF94_ENERGY>
-34.6799

> <PUBCHEM_FEATURE_SELFOVERLAP>
76.219

> <PUBCHEM_SHAPE_FINGERPRINT>
11128504 68 15502378936951109030
117890 112 11672061943524445794
12596602 18 16988840613653591866
12760667 363 18408602552666705379
12969540 114 10737285774671502065
13103583 49 17988374693103767833
13402501 40 18333735714583080882
13533116 47 18201720699262519313
13685833 64 18408323293523744034
13862211 1 18411415120195085559
13911852 28 18269834233517780518
13955234 65 18196933486203146304
14123256 34 18341339920316431670
14251732 14 15791735226284877561
14455015 7 18334016111907316355
14528608 73 12324241671944097830
15061688 2 10519984872311493684
15188451 53 17059765741639252063
15880784 105 18130226081602002531
17834072 32 9294992584080212754
17959699 21 8142096367982348495
193927 3 18410581677691157316
20028762 73 17845930831364359455
20281389 69 12247679357340152314
20388580 30 18113905974476083436
20403669 9 18411421695942964030
21150785 3 14201403806845492787
21267235 1 18271527503859013534
21521239 73 14129053687085867064
21637258 2 17894621548674820178
23016692 55 18410020922502882934
23035841 295 17530966882518487387
23402655 69 11530475640750890833
23559900 14 17677336146545659317
2767999 5 9295287222841710758
2916195 48 11527954448056874475
3421961 26 18341047505942032176
34797466 226 16081377392071743503
351380 3 18408038507101231530
465052 167 18343025497274251758
5104073 3 18201430329978459120
543368 44 11386364855549425775
59682541 35 18340756114803207298
59682541 52 13335008341226158842
59755656 215 17967524645954309163
8863177 126 18262807405086509579

> <PUBCHEM_SHAPE_MULTIPOLES>
348.86
15.15
2.24
1.12
3.72
0.39
0.13
-11.38
-2.27
-0.97
-0.3
0.06
-0.06
0.77

> <PUBCHEM_SHAPE_SELFOVERLAP>
651.319

> <PUBCHEM_SHAPE_VOLUME>
217.9

> <PUBCHEM_COORDINATE_TYPE>
2
5
10