24847444
  -OEChem-05072106003D

 49 50  0     1  0  0  0  0  0999 V2000
   -4.1636    1.7439   -1.8857 O   0  0  0  0  0  0  0  0  0  0  0  0
   -4.4988    2.0981    0.7947 O   0  0  0  0  0  0  0  0  0  0  0  0
   -6.5728    0.9025   -0.6638 O   0  0  0  0  0  0  0  0  0  0  0  0
   -1.8582    2.2270    0.8777 O   0  0  0  0  0  0  0  0  0  0  0  0
    0.3980   -2.3221   -1.2654 O   0  0  0  0  0  0  0  0  0  0  0  0
   -6.9625   -2.0671   -1.0350 O   0  0  0  0  0  0  0  0  0  0  0  0
    0.2253   -2.8818    0.9261 O   0  0  0  0  0  0  0  0  0  0  0  0
   -0.7968    0.4363    3.0361 O   0  0  0  0  0  0  0  0  0  0  0  0
   -0.2298    0.0186    1.0415 N   0  0  0  0  0  0  0  0  0  0  0  0
    5.1064   -1.6306   -0.7289 N   0  0  0  0  0  0  0  0  0  0  0  0
   -0.4220   -0.4510    2.2601 N   0  0  0  0  0  0  0  0  0  0  0  0
    0.8967   -0.6161    0.3359 C   0  0  1  0  0  0  0  0  0  0  0  0
    2.1647   -0.5325    1.1999 C   0  0  0  0  0  0  0  0  0  0  0  0
   -4.2188    0.5643   -1.0726 C   0  0  1  0  0  0  0  0  0  0  0  0
   -3.8215    0.9268    0.3650 C   0  0  1  0  0  0  0  0  0  0  0  0
    3.4344   -0.7022    0.3976 C   0  0  0  0  0  0  0  0  0  0  0  0
   -1.4309   -0.0568    0.2220 C   0  0  0  0  0  0  0  0  0  0  0  0
   -5.6328   -0.0317   -1.2078 C   0  0  1  0  0  0  0  0  0  0  0  0
    4.3071    0.3341   -0.0375 C   0  0  0  0  0  0  0  0  0  0  0  0
   -2.3154    1.1397    0.5233 C   0  0  0  0  0  0  0  0  0  0  0  0
    5.3477   -0.2753   -0.7419 C   0  0  0  0  0  0  0  0  0  0  0  0
    3.9524   -1.8983   -0.0428 C   0  0  0  0  0  0  0  0  0  0  0  0
    0.4847   -2.0527    0.0633 C   0  0  0  0  0  0  0  0  0  0  0  0
   -5.8368   -1.3751   -0.5086 C   0  0  0  0  0  0  0  0  0  0  0  0
    4.3116    1.7363    0.1006 C   0  0  0  0  0  0  0  0  0  0  0  0
    6.3969    0.4504   -1.3173 C   0  0  0  0  0  0  0  0  0  0  0  0
    5.3546    2.4752   -0.4696 C   0  0  0  0  0  0  0  0  0  0  0  0
    6.3802    1.8401   -1.1672 C   0  0  0  0  0  0  0  0  0  0  0  0
    1.0713   -0.0932   -0.6140 H   0  0  0  0  0  0  0  0  0  0  0  0
    2.2183    0.4419    1.7041 H   0  0  0  0  0  0  0  0  0  0  0  0
    2.1644   -1.2929    1.9929 H   0  0  0  0  0  0  0  0  0  0  0  0
   -3.5144   -0.1545   -1.5051 H   0  0  0  0  0  0  0  0  0  0  0  0
   -4.0869    0.1242    1.0610 H   0  0  0  0  0  0  0  0  0  0  0  0
   -1.9972   -0.9852    0.3749 H   0  0  0  0  0  0  0  0  0  0  0  0
   -1.2043    0.0290   -0.8491 H   0  0  0  0  0  0  0  0  0  0  0  0
   -5.8861   -0.1297   -2.2706 H   0  0  0  0  0  0  0  0  0  0  0  0
    3.6057   -2.9160    0.0702 H   0  0  0  0  0  0  0  0  0  0  0  0
    5.6965   -2.3266   -1.1633 H   0  0  0  0  0  0  0  0  0  0  0  0
   -6.0030   -1.2410    0.5652 H   0  0  0  0  0  0  0  0  0  0  0  0
   -4.9637   -2.0181   -0.6598 H   0  0  0  0  0  0  0  0  0  0  0  0
    3.5199    2.2491    0.6393 H   0  0  0  0  0  0  0  0  0  0  0  0
    7.1957   -0.0431   -1.8605 H   0  0  0  0  0  0  0  0  0  0  0  0
   -3.2488    2.0725   -1.8620 H   0  0  0  0  0  0  0  0  0  0  0  0
   -4.3185    2.8000    0.1461 H   0  0  0  0  0  0  0  0  0  0  0  0
    5.3631    3.5572   -0.3667 H   0  0  0  0  0  0  0  0  0  0  0  0
   -6.4388    1.7498   -1.1221 H   0  0  0  0  0  0  0  0  0  0  0  0
    7.1803    2.4335   -1.6022 H   0  0  0  0  0  0  0  0  0  0  0  0
    0.1165   -3.2466   -1.4329 H   0  0  0  0  0  0  0  0  0  0  0  0
   -7.0306   -2.9096   -0.5541 H   0  0  0  0  0  0  0  0  0  0  0  0
  1 14  1  0  0  0  0
  1 43  1  0  0  0  0
  2 15  1  0  0  0  0
  2 44  1  0  0  0  0
  3 18  1  0  0  0  0
  3 46  1  0  0  0  0
  4 20  2  0  0  0  0
  5 23  1  0  0  0  0
  5 48  1  0  0  0  0
  6 24  1  0  0  0  0
  6 49  1  0  0  0  0
  7 23  2  0  0  0  0
  8 11  2  0  0  0  0
  9 11  1  0  0  0  0
  9 12  1  0  0  0  0
  9 17  1  0  0  0  0
 10 21  1  0  0  0  0
 10 22  1  0  0  0  0
 10 38  1  0  0  0  0
 12 13  1  0  0  0  0
 12 23  1  0  0  0  0
 12 29  1  0  0  0  0
 13 16  1  0  0  0  0
 13 30  1  0  0  0  0
 13 31  1  0  0  0  0
 14 15  1  0  0  0  0
 14 18  1  0  0  0  0
 14 32  1  0  0  0  0
 15 20  1  0  0  0  0
 15 33  1  0  0  0  0
 16 19  1  0  0  0  0
 16 22  2  0  0  0  0
 17 20  1  0  0  0  0
 17 34  1  0  0  0  0
 17 35  1  0  0  0  0
 18 24  1  0  0  0  0
 18 36  1  0  0  0  0
 19 21  1  0  0  0  0
 19 25  2  0  0  0  0
 21 26  2  0  0  0  0
 22 37  1  0  0  0  0
 24 39  1  0  0  0  0
 24 40  1  0  0  0  0
 25 27  1  0  0  0  0
 25 41  1  0  0  0  0
 26 28  1  0  0  0  0
 26 42  1  0  0  0  0
 27 28  2  0  0  0  0
 27 45  1  0  0  0  0
 28 47  1  0  0  0  0
M  END
> <PUBCHEM_COMPOUND_CID>
24847444

> <PUBCHEM_CONFORMER_RMSD>
1

> <PUBCHEM_CONFORMER_DIVERSEORDER>
1
34
194
70
171
43
220
216
160
57
78
257
151
6
27
263
113
93
24
182
101
183
236
256
241
159
112
215
146
142
90
188
181
25
92
200
69
231
270
148
9
115
15
132
116
165
131
38
221
246
39
212
80
49
190
94
60
123
129
265
55
137
77
167
177
254
105
269
11
21
121
35
253
230
234
26
140
72
64
154
201
4
22
86
192
251
17
261
114
110
111
134
145
108
89
217
36
100
102
218
5
33
8
235
161
173
95
227
54
53
175
96
103
74
237
83
186
127
85
128
139
232
120
210
172
244
50
106
223
197
176
208
138
174
247
88
144
125
87
71
267
124
136
40
62
195
56
133
73
104
126
82
164
117
63
187
20
178
44
79
213
205
226
193
149
249
2
248
198
185
14
259
211
264
76
266
118
122
46
29
98
67
84
240
224
58
68
7
47
163
32
156
202
42
204
10
91
238
199
153
99
229
203
81
135
180
147
52
45
228
168
19
23
189
152
130
65
75
51
242
97
141
268
184
191
12
107
30
250
3
150
66
155
158
252
258
255
166
31
196
260
18
59
262
28
41
233
179
239
219
119
143
170
162
222
37
109
61
209
207
214
245
243
16
225
169
157
13
206
48

> <PUBCHEM_MMFF94_PARTIAL_CHARGES>
38
1 -0.68
10 0.03
11 -0.01
12 0.33
13 0.18
14 0.28
15 0.34
16 -0.18
17 0.33
18 0.28
2 -0.68
20 0.45
21 -0.15
22 -0.3
23 0.66
24 0.28
25 -0.15
26 -0.15
27 -0.15
28 -0.15
3 -0.68
37 0.15
38 0.27
4 -0.57
41 0.15
42 0.15
43 0.4
44 0.4
45 0.15
46 0.4
47 0.15
48 0.5
49 0.4
5 -0.65
6 -0.68
7 -0.57
8 -0.16
9 -0.36

> <PUBCHEM_EFFECTIVE_ROTOR_COUNT>
11

> <PUBCHEM_PHARMACOPHORE_FEATURES>
16
1 1 acceptor
1 1 donor
1 10 cation
1 10 donor
1 2 acceptor
1 2 donor
1 3 acceptor
1 3 donor
1 4 acceptor
1 5 acceptor
1 6 acceptor
1 6 donor
1 7 acceptor
3 5 7 23 anion
5 10 16 19 21 22 rings
6 19 21 25 26 27 28 rings

> <PUBCHEM_HEAVY_ATOM_COUNT>
28

> <PUBCHEM_ATOM_DEF_STEREO_COUNT>
4

> <PUBCHEM_ATOM_UDEF_STEREO_COUNT>
0

> <PUBCHEM_BOND_DEF_STEREO_COUNT>
0

> <PUBCHEM_BOND_UDEF_STEREO_COUNT>
0

> <PUBCHEM_ISOTOPIC_ATOM_COUNT>
0

> <PUBCHEM_COMPONENT_COUNT>
1

> <PUBCHEM_CACTVS_TAUTO_COUNT>
10

> <PUBCHEM_CONFORMER_ID>
017B245400000001

> <PUBCHEM_MMFF94_ENERGY>
61.4732

> <PUBCHEM_FEATURE_SELFOVERLAP>
81.387

> <PUBCHEM_SHAPE_FINGERPRINT>
10595046 47 18412826867323392197
10693767 8 17914630363279695006
11961588 58 18113898299252935312
12403260 363 18267303123865051562
12633257 1 14707215456780938726
12760667 363 11240004434042420372
12778500 126 7925642098312745284
12969540 114 18186796976736458190
1361 2 18335138713147731676
13782708 43 13973384903723889981
14251757 5 17916860360742120135
14251764 30 13830128386362109613
14347424 109 8862946065640959774
14466204 15 8070033289746106143
14528608 73 18334856099851505276
14681490 219 18408322168391096916
14767858 380 18343299288264196029
14931854 50 18341906186391099356
15003188 100 18261957448660499852
15142383 8 8718555995278789942
15183329 4 18343023285434750268
15348495 7 10447635916170863621
15537594 2 15769771338768634021
15575132 122 18335135346020284477
16120349 21 8862126955184435468
1813 80 13470684858493357706
20554085 129 15357688696047402689
20775438 99 17057210506269517356
21033648 144 18113908138954704492
21033648 29 16226055452797247340
21150785 3 18409730689887454070
21196832 93 18190460661503753075
21403212 168 10447658985289575037
2303208 19 15985097522730429745
23522609 53 17773901773194374753
2838139 119 18113617850805439708
329604 57 18060134336728472403
335352 9 18408329874727308398
34797466 226 18408604734393917575
4072396 5 12396295937408803835
484989 97 18270405017581077626
497634 4 18341048537114049789
513202 73 11455904550194444799
5207 217 18261391186954476931
53794403 172 17970633111097088036
6669772 16 17771047578289489168
7918774 8 14620792721170954821

> <PUBCHEM_SHAPE_MULTIPOLES>
514.33
17.74
2.61
1.66
6.93
0.35
0.8
-4.8
-10.07
-0.66
-0.27
0.9
-0.12
-0.95

> <PUBCHEM_SHAPE_SELFOVERLAP>
1080.356

> <PUBCHEM_SHAPE_VOLUME>
289.7

> <PUBCHEM_COORDINATE_TYPE>
2
5
10