24856365
  -OEChem-05072106003D

 30 30  0     1  0  0  0  0  0999 V2000
    2.0682   -0.2394   -0.3883 S   0  0  0  0  0  0  0  0  0  0  0  0
   -0.7712   -1.2182   -0.0540 O   0  0  0  0  0  0  0  0  0  0  0  0
   -1.7420    2.3276   -0.0081 O   0  0  0  0  0  0  0  0  0  0  0  0
   -0.5719    0.4655   -1.7050 O   0  0  0  0  0  0  0  0  0  0  0  0
   -4.2654    0.9664    0.4427 O   0  0  0  0  0  0  0  0  0  0  0  0
   -3.2807   -1.4310    1.3606 O   0  0  0  0  0  0  0  0  0  0  0  0
    5.6354   -0.0674    1.1445 O   0  0  0  0  0  0  0  0  0  0  0  0
    4.9482   -0.4748   -0.9832 O   0  0  0  0  0  0  0  0  0  0  0  0
   -1.8398    0.9405    0.3056 C   0  0  2  0  0  0  0  0  0  0  0  0
   -0.6397    0.1886   -0.3025 C   0  0  1  0  0  0  0  0  0  0  0  0
   -3.1580    0.3765   -0.2326 C   0  0  1  0  0  0  0  0  0  0  0  0
   -3.2099   -1.1383   -0.0371 C   0  0  1  0  0  0  0  0  0  0  0  0
   -1.9585   -1.7967   -0.6058 C   0  0  0  0  0  0  0  0  0  0  0  0
    0.6700    0.6446    0.3438 C   0  0  0  0  0  0  0  0  0  0  0  0
    3.3990    0.5181    0.5735 C   0  0  0  0  0  0  0  0  0  0  0  0
    4.7164   -0.0621    0.1460 C   0  0  0  0  0  0  0  0  0  0  0  0
   -1.8414    0.8511    1.3997 H   0  0  0  0  0  0  0  0  0  0  0  0
   -3.2837    0.6294   -1.2906 H   0  0  0  0  0  0  0  0  0  0  0  0
   -4.1144   -1.5515   -0.4966 H   0  0  0  0  0  0  0  0  0  0  0  0
   -1.9379   -2.8604   -0.3462 H   0  0  0  0  0  0  0  0  0  0  0  0
   -1.9286   -1.7210   -1.6984 H   0  0  0  0  0  0  0  0  0  0  0  0
    0.6576    0.4403    1.4195 H   0  0  0  0  0  0  0  0  0  0  0  0
    0.8393    1.7127    0.1774 H   0  0  0  0  0  0  0  0  0  0  0  0
   -1.0444    2.7108    0.5494 H   0  0  0  0  0  0  0  0  0  0  0  0
   -1.4554    0.6535   -2.0546 H   0  0  0  0  0  0  0  0  0  0  0  0
   -5.0764    0.5746    0.0758 H   0  0  0  0  0  0  0  0  0  0  0  0
   -3.3342   -2.3974    1.4550 H   0  0  0  0  0  0  0  0  0  0  0  0
    3.2350    0.2970    1.6324 H   0  0  0  0  0  0  0  0  0  0  0  0
    3.4255    1.5997    0.4161 H   0  0  0  0  0  0  0  0  0  0  0  0
    6.4931   -0.4421    0.8506 H   0  0  0  0  0  0  0  0  0  0  0  0
  1 14  1  0  0  0  0
  1 15  1  0  0  0  0
  2 10  1  0  0  0  0
  2 13  1  0  0  0  0
  3  9  1  0  0  0  0
  3 24  1  0  0  0  0
  4 10  1  0  0  0  0
  4 25  1  0  0  0  0
  5 11  1  0  0  0  0
  5 26  1  0  0  0  0
  6 12  1  0  0  0  0
  6 27  1  0  0  0  0
  7 16  1  0  0  0  0
  7 30  1  0  0  0  0
  8 16  2  0  0  0  0
  9 10  1  0  0  0  0
  9 11  1  0  0  0  0
  9 17  1  0  0  0  0
 10 14  1  0  0  0  0
 11 12  1  0  0  0  0
 11 18  1  0  0  0  0
 12 13  1  0  0  0  0
 12 19  1  0  0  0  0
 13 20  1  0  0  0  0
 13 21  1  0  0  0  0
 14 22  1  0  0  0  0
 14 23  1  0  0  0  0
 15 16  1  0  0  0  0
 15 28  1  0  0  0  0
 15 29  1  0  0  0  0
M  END
> <PUBCHEM_COMPOUND_CID>
24856365

> <PUBCHEM_CONFORMER_RMSD>
0.6

> <PUBCHEM_CONFORMER_DIVERSEORDER>
1
93
76
30
15
106
73
101
84
56
16
25
83
95
114
33
100
94
107
69
45
51
49
92
29
8
78
105
112
6
52
80
113
91
58
99
65
96
10
26
108
27
20
17
59
111
115
57
90
22
89
54
104
66
64
35
102
41
60
81
19
98
77
61
31
70
82
42
39
7
79
28
36
12
109
43
44
63
48
32
103
116
50
71
11
55
68
5
86
4
67
18
74
62
53
38
13
97
23
88
24
110
46
47
87
21
72
75
3
34
9
14
40
85
37
2

> <PUBCHEM_MMFF94_PARTIAL_CHARGES>
21
1 -0.46
10 0.56
11 0.28
12 0.28
13 0.28
14 0.23
15 0.29
16 0.66
2 -0.56
24 0.4
25 0.4
26 0.4
27 0.4
3 -0.68
30 0.5
4 -0.68
5 -0.68
6 -0.68
7 -0.65
8 -0.57
9 0.28

> <PUBCHEM_EFFECTIVE_ROTOR_COUNT>
5.2

> <PUBCHEM_PHARMACOPHORE_FEATURES>
13
1 2 acceptor
1 3 acceptor
1 3 donor
1 4 acceptor
1 4 donor
1 5 acceptor
1 5 donor
1 6 acceptor
1 6 donor
1 7 acceptor
1 8 acceptor
3 7 8 16 anion
6 2 9 10 11 12 13 rings

> <PUBCHEM_HEAVY_ATOM_COUNT>
16

> <PUBCHEM_ATOM_DEF_STEREO_COUNT>
4

> <PUBCHEM_ATOM_UDEF_STEREO_COUNT>
0

> <PUBCHEM_BOND_DEF_STEREO_COUNT>
0

> <PUBCHEM_BOND_UDEF_STEREO_COUNT>
0

> <PUBCHEM_ISOTOPIC_ATOM_COUNT>
0

> <PUBCHEM_COMPONENT_COUNT>
1

> <PUBCHEM_CACTVS_TAUTO_COUNT>
1

> <PUBCHEM_CONFORMER_ID>
017B472D00000001

> <PUBCHEM_MMFF94_ENERGY>
38.6502

> <PUBCHEM_FEATURE_SELFOVERLAP>
66.095

> <PUBCHEM_SHAPE_FINGERPRINT>
10680689 15 18343022198728682206
11132069 177 18131356323034771142
12119455 92 16774079561709629165
13024252 1 12179841685082599615
13167823 11 18259980449602349538
13214271 11 18060133258327574045
13675066 3 17775281677783028344
15219456 202 17846226518160290574
15309172 13 16200155408364015333
15375358 24 17847062177441920942
16945 1 17632031831033032029
17804303 29 18341051895097642168
17834074 16 18342740706704166150
19050596 39 18333449854897791656
200 152 14996280319060545948
20279233 1 17918280852259869055
20281475 54 17530961402045252506
20645477 56 17846208982457556680
20645477 70 16343425004175407860
22646028 1 17821725048903265938
2297311 6 18270976695123991028
2306618 200 18060706082759053249
23175994 123 17060341824895769640
23402539 116 18131625708459155125
23559900 14 18200611198126310678
2838139 119 14332301662549042499
5104073 3 18338518646256574392
573450 72 18261099743669785602

> <PUBCHEM_SHAPE_MULTIPOLES>
292.04
9.81
1.55
1.03
13.79
0.12
-0.07
-0.76
2.05
-1.75
0.01
0.14
-0.12
0.39

> <PUBCHEM_SHAPE_SELFOVERLAP>
573.176

> <PUBCHEM_SHAPE_VOLUME>
175.6

> <PUBCHEM_COORDINATE_TYPE>
2
5
10