27860
  -OEChem-05072106003D

 37 39  0     0  0  0  0  0  0999 V2000
   -1.4146    2.2972   -1.2201 O   0  0  0  0  0  0  0  0  0  0  0  0
    5.4998    0.9243    0.9389 O   0  0  0  0  0  0  0  0  0  0  0  0
    3.4880    0.7004    1.9670 O   0  0  0  0  0  0  0  0  0  0  0  0
   -0.0875    0.5786   -0.5809 N   0  0  0  0  0  0  0  0  0  0  0  0
    2.1404    0.2863   -0.4977 C   0  0  0  0  0  0  0  0  0  0  0  0
    1.5351   -0.9918   -0.4716 C   0  0  0  0  0  0  0  0  0  0  0  0
    1.1366    1.2199   -0.5573 C   0  0  0  0  0  0  0  0  0  0  0  0
    0.1475   -0.7993   -0.5201 C   0  0  0  0  0  0  0  0  0  0  0  0
    3.5917    0.5664   -0.4622 C   0  0  0  0  0  0  0  0  0  0  0  0
    2.0535   -2.3022   -0.4086 C   0  0  0  0  0  0  0  0  0  0  0  0
   -0.7307   -1.9003   -0.5175 C   0  0  0  0  0  0  0  0  0  0  0  0
    1.2957    2.6932   -0.5972 C   0  0  0  0  0  0  0  0  0  0  0  0
   -1.3400    1.2293   -0.6211 C   0  0  0  0  0  0  0  0  0  0  0  0
    1.1797   -3.3911   -0.3999 C   0  0  0  0  0  0  0  0  0  0  0  0
   -0.1935   -3.1903   -0.4550 C   0  0  0  0  0  0  0  0  0  0  0  0
   -2.5764    0.7112   -0.0045 C   0  0  0  0  0  0  0  0  0  0  0  0
    4.1543    0.7322    0.9415 C   0  0  0  0  0  0  0  0  0  0  0  0
   -2.5024   -0.0834    1.1368 C   0  0  0  0  0  0  0  0  0  0  0  0
   -3.8122    1.0209   -0.5665 C   0  0  0  0  0  0  0  0  0  0  0  0
   -3.6718   -0.5713    1.7198 C   0  0  0  0  0  0  0  0  0  0  0  0
   -4.9817    0.5330    0.0166 C   0  0  0  0  0  0  0  0  0  0  0  0
   -4.9116   -0.2631    1.1597 C   0  0  0  0  0  0  0  0  0  0  0  0
    3.8264    1.4738   -1.0296 H   0  0  0  0  0  0  0  0  0  0  0  0
    4.1384   -0.2566   -0.9382 H   0  0  0  0  0  0  0  0  0  0  0  0
    3.1254   -2.4753   -0.3667 H   0  0  0  0  0  0  0  0  0  0  0  0
   -1.8017   -1.7943   -0.6383 H   0  0  0  0  0  0  0  0  0  0  0  0
    0.6083    3.1856    0.0986 H   0  0  0  0  0  0  0  0  0  0  0  0
    2.3020    3.0082   -0.3049 H   0  0  0  0  0  0  0  0  0  0  0  0
    1.1109    3.0735   -1.6069 H   0  0  0  0  0  0  0  0  0  0  0  0
    1.5781   -4.4009   -0.3556 H   0  0  0  0  0  0  0  0  0  0  0  0
   -0.8617   -4.0477   -0.4680 H   0  0  0  0  0  0  0  0  0  0  0  0
   -1.5585   -0.2959    1.6305 H   0  0  0  0  0  0  0  0  0  0  0  0
   -3.8884    1.6348   -1.4601 H   0  0  0  0  0  0  0  0  0  0  0  0
   -3.6182   -1.1808    2.6171 H   0  0  0  0  0  0  0  0  0  0  0  0
   -5.9470    0.7722   -0.4199 H   0  0  0  0  0  0  0  0  0  0  0  0
   -5.8223   -0.6408    1.6152 H   0  0  0  0  0  0  0  0  0  0  0  0
    5.8551    1.0309    1.8470 H   0  0  0  0  0  0  0  0  0  0  0  0
  1 13  2  0  0  0  0
  2 17  1  0  0  0  0
  2 37  1  0  0  0  0
  3 17  2  0  0  0  0
  4  7  1  0  0  0  0
  4  8  1  0  0  0  0
  4 13  1  0  0  0  0
  5  6  1  0  0  0  0
  5  7  2  0  0  0  0
  5  9  1  0  0  0  0
  6  8  1  0  0  0  0
  6 10  2  0  0  0  0
  7 12  1  0  0  0  0
  8 11  2  0  0  0  0
  9 17  1  0  0  0  0
  9 23  1  0  0  0  0
  9 24  1  0  0  0  0
 10 14  1  0  0  0  0
 10 25  1  0  0  0  0
 11 15  1  0  0  0  0
 11 26  1  0  0  0  0
 12 27  1  0  0  0  0
 12 28  1  0  0  0  0
 12 29  1  0  0  0  0
 13 16  1  0  0  0  0
 14 15  2  0  0  0  0
 14 30  1  0  0  0  0
 15 31  1  0  0  0  0
 16 18  2  0  0  0  0
 16 19  1  0  0  0  0
 18 20  1  0  0  0  0
 18 32  1  0  0  0  0
 19 21  2  0  0  0  0
 19 33  1  0  0  0  0
 20 22  2  0  0  0  0
 20 34  1  0  0  0  0
 21 22  1  0  0  0  0
 21 35  1  0  0  0  0
 22 36  1  0  0  0  0
M  END
> <PUBCHEM_COMPOUND_CID>
27860

> <PUBCHEM_CONFORMER_RMSD>
0.6

> <PUBCHEM_CONFORMER_DIVERSEORDER>
1
22
39
29
16
21
10
17
23
18
31
14
6
35
4
20
30
11
32
2
37
36
24
3
26
28
9
5
38
7
12
8
33
25
34
19
13
27
15

> <PUBCHEM_MMFF94_PARTIAL_CHARGES>
31
1 -0.57
10 -0.15
11 -0.15
12 0.18
13 0.49
14 -0.15
15 -0.15
16 0.09
17 0.66
18 -0.15
19 -0.15
2 -0.65
20 -0.15
21 -0.15
22 -0.15
25 0.15
26 0.15
3 -0.57
30 0.15
31 0.15
32 0.15
33 0.15
34 0.15
35 0.15
36 0.15
37 0.5
4 0.29
5 -0.18
7 -0.33
8 -0.15
9 0.24

> <PUBCHEM_EFFECTIVE_ROTOR_COUNT>
4

> <PUBCHEM_PHARMACOPHORE_FEATURES>
7
1 1 acceptor
1 2 acceptor
1 3 acceptor
3 2 3 17 anion
5 4 5 6 7 8 rings
6 16 18 19 20 21 22 rings
6 6 8 10 11 14 15 rings

> <PUBCHEM_HEAVY_ATOM_COUNT>
22

> <PUBCHEM_ATOM_DEF_STEREO_COUNT>
0

> <PUBCHEM_ATOM_UDEF_STEREO_COUNT>
0

> <PUBCHEM_BOND_DEF_STEREO_COUNT>
0

> <PUBCHEM_BOND_UDEF_STEREO_COUNT>
0

> <PUBCHEM_ISOTOPIC_ATOM_COUNT>
0

> <PUBCHEM_COMPONENT_COUNT>
1

> <PUBCHEM_CACTVS_TAUTO_COUNT>
1

> <PUBCHEM_CONFORMER_ID>
00006CD400000001

> <PUBCHEM_MMFF94_ENERGY>
60.1354

> <PUBCHEM_FEATURE_SELFOVERLAP>
35.669

> <PUBCHEM_SHAPE_FINGERPRINT>
10074138 170 18121195831047197050
10493431 412 18342173410148713752
10906281 52 18114475461406827837
10967382 1 18409736127353149583
1100329 8 18269555116514856600
11132069 177 18411703205273826511
11578080 2 17342622641130963393
11796584 16 16225763017280048529
12236239 1 17346599652013403157
12596602 18 17275388707682764339
12633257 1 18057581322632485696
12788726 201 17550388878807126230
12839892 36 18336261327362596339
12930653 34 18267867190020041261
13140716 1 18193557998036743344
13583140 156 16951104266734248172
14178342 30 18337689528906285553
14223421 5 18193559956509961133
14787075 74 17632571703721224281
14790565 3 18265071260857992796
14863182 85 18335719212094892750
14955137 171 18261118487060513628
15209294 21 17988640834952259826
15295992 7 17274248587139159696
15309172 13 18411984671502405469
15375358 24 18187650172258898677
15475509 84 17410510779037395137
16945 1 18409452504813507276
1813 80 12252178524598028042
19591789 44 18193012618704846679
19784866 170 18407763629225578772
20028762 73 18128539456319053135
20261772 1 18336546109574368304
204376 136 18342459274275993842
20603629 256 18057897848346882819
20739085 24 18194138338323269740
21033648 29 18200013106392394336
21197605 99 18049181139902052579
22079108 93 17775566480916262523
22182313 1 18263923241921322942
22224240 67 18271520983038316321
2334 1 17833555973852971964
23419403 2 17318146343664690494
23559900 14 17897453787116603431
25147074 1 17975413830556143500
2748010 2 18192429667262586940
2838139 119 15769773593911450608
33824 294 18410297973711089047
350125 39 18339366236920377270
392239 28 17702674392134436515
427121 178 18131636690205467978
4340502 62 18131357431690344899
465052 167 17821737168689221249
469060 322 18263907995098873055
474 4 17274814813604423808
484985 159 14640727765237373952
49207404 50 18337391547821545418
495365 180 18125426528425620501
5104073 3 18265621974934001217
57100710 210 16370716024420502437
58807428 26 18411409631696470714
59755656 520 17917991698214027078
6438718 38 17843968271669551942
7288768 16 16984864857312078616
81228 2 17908970342815968374
9709674 26 18188780431636596647

> <PUBCHEM_SHAPE_MULTIPOLES>
430.16
8.71
3.02
1.28
2.35
2.33
0.58
-3.2
4.19
-1.54
-1
-0.01
-0.25
1.09

> <PUBCHEM_SHAPE_SELFOVERLAP>
948.741

> <PUBCHEM_SHAPE_VOLUME>
233

> <PUBCHEM_COORDINATE_TYPE>
2
5
10