29972344
  -OEChem-05072106003D

 32 33  0     1  0  0  0  0  0999 V2000
    1.6706    0.4964    0.5661 O   0  0  0  0  0  0  0  0  0  0  0  0
    0.1880    0.0542   -1.2464 O   0  0  0  0  0  0  0  0  0  0  0  0
    2.9197   -0.8555   -0.8881 O   0  0  0  0  0  0  0  0  0  0  0  0
   -0.9189   -2.0917    0.3955 O   0  0  0  0  0  0  0  0  0  0  0  0
   -0.7477    1.1374    2.0541 O   0  0  0  0  0  0  0  0  0  0  0  0
   -2.7544   -0.0815   -0.7758 N   0  0  0  0  0  0  0  0  0  0  0  0
   -3.9498    0.0365   -0.4609 N   0  3  0  0  0  0  0  0  0  0  0  0
   -5.0508    0.1363   -0.1798 N   0  5  0  0  0  0  0  0  0  0  0  0
    0.7966   -0.4583   -0.0524 C   0  0  2  0  0  0  0  0  0  0  0  0
   -0.2780   -0.9365    0.9335 C   0  0  1  0  0  0  0  0  0  0  0  0
   -1.3300    0.1462    1.2076 C   0  0  2  0  0  0  0  0  0  0  0  0
    1.7514   -1.5655   -0.4663 C   0  0  0  0  0  0  0  0  0  0  0  0
   -1.8227    0.8157   -0.0784 C   0  0  1  0  0  0  0  0  0  0  0  0
    2.9464    0.3195   -0.0664 C   0  0  0  0  0  0  0  0  0  0  0  0
   -0.6724    1.1687   -1.0162 C   0  0  0  0  0  0  0  0  0  0  0  0
    4.0030    0.1519    1.0192 C   0  0  0  0  0  0  0  0  0  0  0  0
    3.2490    1.5263   -0.9452 C   0  0  0  0  0  0  0  0  0  0  0  0
    0.2018   -1.2237    1.8777 H   0  0  0  0  0  0  0  0  0  0  0  0
   -2.1737   -0.2901    1.7558 H   0  0  0  0  0  0  0  0  0  0  0  0
    2.0389   -2.2067    0.3743 H   0  0  0  0  0  0  0  0  0  0  0  0
    1.3860   -2.1823   -1.2922 H   0  0  0  0  0  0  0  0  0  0  0  0
   -2.3349    1.7572    0.1659 H   0  0  0  0  0  0  0  0  0  0  0  0
   -1.0580    1.4898   -1.9900 H   0  0  0  0  0  0  0  0  0  0  0  0
   -0.0813    1.9999   -0.6142 H   0  0  0  0  0  0  0  0  0  0  0  0
    3.7717   -0.7122    1.6525 H   0  0  0  0  0  0  0  0  0  0  0  0
    4.0429    1.0288    1.6738 H   0  0  0  0  0  0  0  0  0  0  0  0
    4.9939   -0.0206    0.5863 H   0  0  0  0  0  0  0  0  0  0  0  0
    2.4946    1.6302   -1.7329 H   0  0  0  0  0  0  0  0  0  0  0  0
    4.2192    1.4225   -1.4424 H   0  0  0  0  0  0  0  0  0  0  0  0
    3.2389    2.4540   -0.3637 H   0  0  0  0  0  0  0  0  0  0  0  0
   -1.5693   -2.3981    1.0501 H   0  0  0  0  0  0  0  0  0  0  0  0
   -1.4383    1.7902    2.2601 H   0  0  0  0  0  0  0  0  0  0  0  0
  1  9  1  0  0  0  0
  1 14  1  0  0  0  0
  2  9  1  0  0  0  0
  2 15  1  0  0  0  0
  3 12  1  0  0  0  0
  3 14  1  0  0  0  0
  4 10  1  0  0  0  0
  4 31  1  0  0  0  0
  5 11  1  0  0  0  0
  5 32  1  0  0  0  0
  6  7  2  0  0  0  0
  6 13  1  0  0  0  0
  7  8  2  0  0  0  0
  9 10  1  0  0  0  0
  9 12  1  0  0  0  0
 10 11  1  0  0  0  0
 10 18  1  0  0  0  0
 11 13  1  0  0  0  0
 11 19  1  0  0  0  0
 12 20  1  0  0  0  0
 12 21  1  0  0  0  0
 13 15  1  0  0  0  0
 13 22  1  0  0  0  0
 14 16  1  0  0  0  0
 14 17  1  0  0  0  0
 15 23  1  0  0  0  0
 15 24  1  0  0  0  0
 16 25  1  0  0  0  0
 16 26  1  0  0  0  0
 16 27  1  0  0  0  0
 17 28  1  0  0  0  0
 17 29  1  0  0  0  0
 17 30  1  0  0  0  0
M  CHG  2   7   1   8  -1
M  END
> <PUBCHEM_COMPOUND_CID>
29972344

> <PUBCHEM_CONFORMER_RMSD>
0.6

> <PUBCHEM_CONFORMER_DIVERSEORDER>
1
14
15
7
5
10
8
12
2
13
4
9
11
16
6
3

> <PUBCHEM_MMFF94_PARTIAL_CHARGES>
17
1 -0.56
10 0.28
11 0.28
12 0.28
13 0.25
14 0.56
15 0.28
2 -0.56
3 -0.56
31 0.4
32 0.4
4 -0.68
5 -0.68
6 -0.56
7 0.69
8 -0.37
9 0.56

> <PUBCHEM_EFFECTIVE_ROTOR_COUNT>
2.8

> <PUBCHEM_PHARMACOPHORE_FEATURES>
10
1 1 acceptor
1 2 acceptor
1 3 acceptor
1 4 acceptor
1 4 donor
1 5 acceptor
1 5 donor
3 14 16 17 hydrophobe
5 1 3 9 12 14 rings
6 2 9 10 11 13 15 rings

> <PUBCHEM_HEAVY_ATOM_COUNT>
17

> <PUBCHEM_ATOM_DEF_STEREO_COUNT>
4

> <PUBCHEM_ATOM_UDEF_STEREO_COUNT>
0

> <PUBCHEM_BOND_DEF_STEREO_COUNT>
0

> <PUBCHEM_BOND_UDEF_STEREO_COUNT>
0

> <PUBCHEM_ISOTOPIC_ATOM_COUNT>
0

> <PUBCHEM_COMPONENT_COUNT>
1

> <PUBCHEM_CACTVS_TAUTO_COUNT>
1

> <PUBCHEM_CONFORMER_ID>
01C9577800000001

> <PUBCHEM_MMFF94_ENERGY>
41.7909

> <PUBCHEM_FEATURE_SELFOVERLAP>
50.84

> <PUBCHEM_SHAPE_FINGERPRINT>
11132069 177 18409442613487941550
12119455 92 17967521368129163486
12251169 10 17895185624083824216
124424 183 17313104129668667048
12507560 14 18114447973620771418
13024252 1 14923941262566793002
13380535 76 18409446994602977402
13538477 17 14851902356163665426
13581323 91 16877933919800246020
14943859 89 16660361498054833337
15775835 57 17894347808881488064
15852999 172 18408888442722518954
16945 1 18271256000862499376
17846911 113 17967809444481242085
18186145 218 18339364037464384165
18511873 20 13623531250998672624
187816 3 18202282511207615531
200 152 17989204824113686894
22344851 262 18040714813529119719
228727 97 17775008963953974435
23402539 116 18188474844069999103
23419403 2 17840592818511974827
23557571 272 15482675654559150840
23559900 14 18411421704918046406
265663 24 16660638557763030787
2748010 2 17678484014925241334
296302 2 18261115217972904549
3286 77 17988923315141046334
369184 2 17022904588030993776
4047638 21 18113901571717444460
5084963 1 18270963432111915508
69090 78 17967527995479985483
8030462 33 17774737397883540240

> <PUBCHEM_SHAPE_MULTIPOLES>
305.56
6.66
1.45
1.31
3.51
0.14
0.55
-1.25
-0.35
-0.46
-0.29
-0.13
0.03
0.09

> <PUBCHEM_SHAPE_SELFOVERLAP>
635.137

> <PUBCHEM_SHAPE_VOLUME>
172.8

> <PUBCHEM_COORDINATE_TYPE>
2
5
10