3037557
  -OEChem-05072106003D

 45 45  0     1  0  0  0  0  0999 V2000
    1.3134   -0.6198   -0.3185 O   0  0  0  0  0  0  0  0  0  0  0  0
   -0.5012    0.4679    0.6680 O   0  0  0  0  0  0  0  0  0  0  0  0
    3.9046    2.3053    1.0441 O   0  0  0  0  0  0  0  0  0  0  0  0
    1.0639    2.8278    0.8915 O   0  0  0  0  0  0  0  0  0  0  0  0
    3.8432   -0.4737    0.9994 O   0  0  0  0  0  0  0  0  0  0  0  0
    2.0025   -2.5830   -2.1104 O   0  0  0  0  0  0  0  0  0  0  0  0
   -2.6908    2.3550    0.5023 O   0  0  0  0  0  0  0  0  0  0  0  0
   -3.1841   -0.0560    1.5625 O   0  0  0  0  0  0  0  0  0  0  0  0
   -3.7102    2.8516   -2.0389 O   0  0  0  0  0  0  0  0  0  0  0  0
   -2.1280   -2.4356    1.9581 O   0  0  0  0  0  0  0  0  0  0  0  0
   -1.0922   -4.1432    0.1938 O   0  0  0  0  0  0  0  0  0  0  0  0
    3.0221    1.6351    0.1484 C   0  0  2  0  0  0  0  0  0  0  0  0
    1.6401    1.5256    0.7920 C   0  0  2  0  0  0  0  0  0  0  0  0
    3.5762    0.2535   -0.2014 C   0  0  2  0  0  0  0  0  0  0  0  0
    0.7155    0.6489   -0.0558 C   0  0  1  0  0  0  0  0  0  0  0  0
    2.5500   -0.5205   -1.0360 C   0  0  1  0  0  0  0  0  0  0  0  0
   -1.6091    0.2984   -0.2113 C   0  0  2  0  0  0  0  0  0  0  0  0
    3.0093   -1.9396   -1.3497 C   0  0  0  0  0  0  0  0  0  0  0  0
   -2.1588    1.6738   -0.6333 C   0  0  1  0  0  0  0  0  0  0  0  0
   -2.6378   -0.6654    0.3994 C   0  0  1  0  0  0  0  0  0  0  0  0
   -3.2738    1.5466   -1.6717 C   0  0  0  0  0  0  0  0  0  0  0  0
   -2.0987   -2.0401    0.7917 C   0  0  0  0  0  0  0  0  0  0  0  0
   -1.5562   -2.9125   -0.3240 C   0  0  0  0  0  0  0  0  0  0  0  0
    2.9648    2.2515   -0.7567 H   0  0  0  0  0  0  0  0  0  0  0  0
    1.7134    1.1399    1.8153 H   0  0  0  0  0  0  0  0  0  0  0  0
    4.5292    0.3514   -0.7319 H   0  0  0  0  0  0  0  0  0  0  0  0
    0.5220    1.1549   -1.0112 H   0  0  0  0  0  0  0  0  0  0  0  0
    2.3495    0.0013   -1.9810 H   0  0  0  0  0  0  0  0  0  0  0  0
   -1.2519   -0.1958   -1.1260 H   0  0  0  0  0  0  0  0  0  0  0  0
    3.9412   -1.9341   -1.9235 H   0  0  0  0  0  0  0  0  0  0  0  0
    3.1497   -2.5256   -0.4358 H   0  0  0  0  0  0  0  0  0  0  0  0
   -1.3651    2.3204   -1.0198 H   0  0  0  0  0  0  0  0  0  0  0  0
   -3.4686   -0.8465   -0.2893 H   0  0  0  0  0  0  0  0  0  0  0  0
    4.0072    1.7462    1.8332 H   0  0  0  0  0  0  0  0  0  0  0  0
    0.9840    3.1923   -0.0065 H   0  0  0  0  0  0  0  0  0  0  0  0
    2.9941   -0.7007    1.4144 H   0  0  0  0  0  0  0  0  0  0  0  0
   -4.1483    1.0263   -1.2709 H   0  0  0  0  0  0  0  0  0  0  0  0
   -2.9195    1.0307   -2.5693 H   0  0  0  0  0  0  0  0  0  0  0  0
    2.3165   -3.4839   -2.2987 H   0  0  0  0  0  0  0  0  0  0  0  0
   -3.4709    1.8656    0.8132 H   0  0  0  0  0  0  0  0  0  0  0  0
   -2.4469    0.1527    2.1619 H   0  0  0  0  0  0  0  0  0  0  0  0
   -2.3591   -3.1169   -1.0370 H   0  0  0  0  0  0  0  0  0  0  0  0
   -0.7290   -2.4151   -0.8330 H   0  0  0  0  0  0  0  0  0  0  0  0
   -4.4112    2.7410   -2.7037 H   0  0  0  0  0  0  0  0  0  0  0  0
   -0.3264   -3.9509    0.7616 H   0  0  0  0  0  0  0  0  0  0  0  0
  1 15  1  0  0  0  0
  1 16  1  0  0  0  0
  2 15  1  0  0  0  0
  2 17  1  0  0  0  0
  3 12  1  0  0  0  0
  3 34  1  0  0  0  0
  4 13  1  0  0  0  0
  4 35  1  0  0  0  0
  5 14  1  0  0  0  0
  5 36  1  0  0  0  0
  6 18  1  0  0  0  0
  6 39  1  0  0  0  0
  7 19  1  0  0  0  0
  7 40  1  0  0  0  0
  8 20  1  0  0  0  0
  8 41  1  0  0  0  0
  9 21  1  0  0  0  0
  9 44  1  0  0  0  0
 10 22  2  0  0  0  0
 11 23  1  0  0  0  0
 11 45  1  0  0  0  0
 12 13  1  0  0  0  0
 12 14  1  0  0  0  0
 12 24  1  0  0  0  0
 13 15  1  0  0  0  0
 13 25  1  0  0  0  0
 14 16  1  0  0  0  0
 14 26  1  0  0  0  0
 15 27  1  0  0  0  0
 16 18  1  0  0  0  0
 16 28  1  0  0  0  0
 17 19  1  0  0  0  0
 17 20  1  0  0  0  0
 17 29  1  0  0  0  0
 18 30  1  0  0  0  0
 18 31  1  0  0  0  0
 19 21  1  0  0  0  0
 19 32  1  0  0  0  0
 20 22  1  0  0  0  0
 20 33  1  0  0  0  0
 21 37  1  0  0  0  0
 21 38  1  0  0  0  0
 22 23  1  0  0  0  0
 23 42  1  0  0  0  0
 23 43  1  0  0  0  0
M  END
> <PUBCHEM_COMPOUND_CID>
3037557

> <PUBCHEM_CONFORMER_RMSD>
1

> <PUBCHEM_CONFORMER_DIVERSEORDER>
1
41
39
64
109
159
139
25
91
123
103
72
142
106
12
131
99
54
46
11
83
90
129
102
113
108
94
84
141
32
78
126
157
136
79
86
33
57
151
127
43
117
128
74
140
76
82
75
143
154
89
4
88
13
53
17
114
115
124
14
50
23
42
122
119
70
77
135
68
97
15
16
59
100
137
52
146
61
152
63
58
110
18
51
22
150
112
134
111
104
98
8
69
48
5
37
101
116
80
93
36
19
148
30
149
20
65
81
153
31
24
155
133
138
132
29
92
120
66
125
147
7
49
67
62
145
56
156
130
45
28
40
55
27
96
6
158
144
44
73
107
71
118
38
85
121
2
47
26
21
35
9
105
10
3
34
60
95
87

> <PUBCHEM_MMFF94_PARTIAL_CHARGES>
31
1 -0.56
10 -0.57
11 -0.68
12 0.28
13 0.28
14 0.28
15 0.56
16 0.28
17 0.28
18 0.28
19 0.28
2 -0.56
20 0.34
21 0.28
22 0.45
23 0.34
3 -0.68
34 0.4
35 0.4
36 0.4
39 0.4
4 -0.68
40 0.4
41 0.4
44 0.4
45 0.4
5 -0.68
6 -0.68
7 -0.68
8 -0.68
9 -0.68

> <PUBCHEM_EFFECTIVE_ROTOR_COUNT>
9.2

> <PUBCHEM_PHARMACOPHORE_FEATURES>
20
1 1 acceptor
1 10 acceptor
1 11 acceptor
1 11 donor
1 2 acceptor
1 3 acceptor
1 3 donor
1 4 acceptor
1 4 donor
1 5 acceptor
1 5 donor
1 6 acceptor
1 6 donor
1 7 acceptor
1 7 donor
1 8 acceptor
1 8 donor
1 9 acceptor
1 9 donor
6 1 12 13 14 15 16 rings

> <PUBCHEM_HEAVY_ATOM_COUNT>
23

> <PUBCHEM_ATOM_DEF_STEREO_COUNT>
8

> <PUBCHEM_ATOM_UDEF_STEREO_COUNT>
0

> <PUBCHEM_BOND_DEF_STEREO_COUNT>
0

> <PUBCHEM_BOND_UDEF_STEREO_COUNT>
0

> <PUBCHEM_ISOTOPIC_ATOM_COUNT>
0

> <PUBCHEM_COMPONENT_COUNT>
1

> <PUBCHEM_CACTVS_TAUTO_COUNT>
6

> <PUBCHEM_CONFORMER_ID>
002E597500000001

> <PUBCHEM_MMFF94_ENERGY>
51.8086

> <PUBCHEM_FEATURE_SELFOVERLAP>
101.632

> <PUBCHEM_SHAPE_FINGERPRINT>
10366900 7 18270405008821870310
10616163 171 18054236697943400634
10906281 52 18199751345731932856
1100329 8 15888574317189309513
12500047 106 18261386724472887532
12553582 1 17760669343832413135
12633257 1 18342750640578543250
13140716 1 17982174727175406370
14223421 5 18268998746482572026
15420108 30 15252159403663974064
18186145 218 18192436268516940533
19049666 15 18341060618181306728
20645477 70 18201714029473759540
21285901 2 18337669849503480335
22907989 373 18041292031928050605
23526113 38 18125997161611291452
23557571 272 18260271871190717156
23559900 14 18339362955923903206
238 59 18129931283114461623
2748010 2 18337963302457761175
3084891 72 18120639258655856001
57210444 14 18117278051978477357
6049 1 18338533983431560004
633830 44 18125994967506080125
6438718 38 14275664766045428630
81228 2 18116158938320363921
9709674 26 18341896302832152382
9981440 41 17485327339775780929

> <PUBCHEM_SHAPE_MULTIPOLES>
408.77
6.88
4.04
1.62
2.39
2.22
0.4
-2.39
0.48
-1.98
0.37
-0.65
0.11
3.11

> <PUBCHEM_SHAPE_SELFOVERLAP>
817.748

> <PUBCHEM_SHAPE_VOLUME>
236.7

> <PUBCHEM_COORDINATE_TYPE>
2
5
10