3063087
  -OEChem-05072106003D

 45 45  0     1  0  0  0  0  0999 V2000
   -3.8112    0.6481   -2.2876 O   0  0  0  0  0  0  0  0  0  0  0  0
   -4.0901    2.0318    0.0427 O   0  0  0  0  0  0  0  0  0  0  0  0
   -6.0292    0.1167   -0.6133 O   0  0  0  0  0  0  0  0  0  0  0  0
   -1.4927    2.4808   -0.1780 O   0  0  0  0  0  0  0  0  0  0  0  0
   -6.0104   -2.7665    0.2785 O   0  0  0  0  0  0  0  0  0  0  0  0
    1.2983   -2.2601   -0.5101 O   0  0  0  0  0  0  0  0  0  0  0  0
    1.2903   -1.8858    1.7272 O   0  0  0  0  0  0  0  0  0  0  0  0
   -0.1077    1.8672    2.4099 O   0  0  0  0  0  0  0  0  0  0  0  0
    0.4357    0.7341    0.7085 N   0  0  0  0  0  0  0  0  0  0  0  0
    0.3584    0.7881    2.0251 N   0  0  0  0  0  0  0  0  0  0  0  0
   -3.6684   -0.0913   -1.0675 C   0  0  1  0  0  0  0  0  0  0  0  0
   -3.2714    0.8721    0.0595 C   0  0  1  0  0  0  0  0  0  0  0  0
    1.6126   -0.0026    0.2165 C   0  0  1  0  0  0  0  0  0  0  0  0
   -4.9885   -0.8458   -0.8203 C   0  0  1  0  0  0  0  0  0  0  0  0
   -0.7733    0.1935    0.1034 C   0  0  0  0  0  0  0  0  0  0  0  0
   -1.8054    1.2999   -0.0213 C   0  0  0  0  0  0  0  0  0  0  0  0
    2.8883    0.5712    0.8526 C   0  0  0  0  0  0  0  0  0  0  0  0
   -4.9741   -1.7971    0.3756 C   0  0  0  0  0  0  0  0  0  0  0  0
    4.1375    0.2316    0.0725 C   0  0  0  0  0  0  0  0  0  0  0  0
    1.3970   -1.4608    0.5839 C   0  0  0  0  0  0  0  0  0  0  0  0
    4.8444   -0.9358    0.3615 C   0  0  0  0  0  0  0  0  0  0  0  0
    4.5834    1.0851   -0.9367 C   0  0  0  0  0  0  0  0  0  0  0  0
    5.9972   -1.2495   -0.3585 C   0  0  0  0  0  0  0  0  0  0  0  0
    5.7361    0.7713   -1.6567 C   0  0  0  0  0  0  0  0  0  0  0  0
    6.4430   -0.3960   -1.3675 C   0  0  0  0  0  0  0  0  0  0  0  0
   -2.8868   -0.8397   -1.2377 H   0  0  0  0  0  0  0  0  0  0  0  0
   -3.3942    0.4019    1.0407 H   0  0  0  0  0  0  0  0  0  0  0  0
    1.6721    0.0996   -0.8752 H   0  0  0  0  0  0  0  0  0  0  0  0
   -5.2659   -1.3997   -1.7256 H   0  0  0  0  0  0  0  0  0  0  0  0
   -1.1968   -0.6475    0.6683 H   0  0  0  0  0  0  0  0  0  0  0  0
   -0.6024   -0.1432   -0.9278 H   0  0  0  0  0  0  0  0  0  0  0  0
    3.0208    0.2264    1.8874 H   0  0  0  0  0  0  0  0  0  0  0  0
    2.8287    1.6677    0.9096 H   0  0  0  0  0  0  0  0  0  0  0  0
   -4.0256   -2.3421    0.4156 H   0  0  0  0  0  0  0  0  0  0  0  0
   -5.1163   -1.2534    1.3153 H   0  0  0  0  0  0  0  0  0  0  0  0
   -2.9517    1.0586   -2.4828 H   0  0  0  0  0  0  0  0  0  0  0  0
   -4.0355    2.4207   -0.8469 H   0  0  0  0  0  0  0  0  0  0  0  0
   -6.0336    0.7101   -1.3839 H   0  0  0  0  0  0  0  0  0  0  0  0
    4.5080   -1.6091    1.1453 H   0  0  0  0  0  0  0  0  0  0  0  0
    4.0401    1.9960   -1.1733 H   0  0  0  0  0  0  0  0  0  0  0  0
   -5.9408   -3.3387    1.0617 H   0  0  0  0  0  0  0  0  0  0  0  0
    6.5476   -2.1583   -0.1335 H   0  0  0  0  0  0  0  0  0  0  0  0
    6.0830    1.4353   -2.4430 H   0  0  0  0  0  0  0  0  0  0  0  0
    7.3404   -0.6404   -1.9283 H   0  0  0  0  0  0  0  0  0  0  0  0
    1.1436   -3.1972   -0.2649 H   0  0  0  0  0  0  0  0  0  0  0  0
  1 11  1  0  0  0  0
  1 36  1  0  0  0  0
  2 12  1  0  0  0  0
  2 37  1  0  0  0  0
  3 14  1  0  0  0  0
  3 38  1  0  0  0  0
  4 16  2  0  0  0  0
  5 18  1  0  0  0  0
  5 41  1  0  0  0  0
  6 20  1  0  0  0  0
  6 45  1  0  0  0  0
  7 20  2  0  0  0  0
  8 10  2  0  0  0  0
  9 10  1  0  0  0  0
  9 13  1  0  0  0  0
  9 15  1  0  0  0  0
 11 12  1  0  0  0  0
 11 14  1  0  0  0  0
 11 26  1  0  0  0  0
 12 16  1  0  0  0  0
 12 27  1  0  0  0  0
 13 17  1  0  0  0  0
 13 20  1  0  0  0  0
 13 28  1  0  0  0  0
 14 18  1  0  0  0  0
 14 29  1  0  0  0  0
 15 16  1  0  0  0  0
 15 30  1  0  0  0  0
 15 31  1  0  0  0  0
 17 19  1  0  0  0  0
 17 32  1  0  0  0  0
 17 33  1  0  0  0  0
 18 34  1  0  0  0  0
 18 35  1  0  0  0  0
 19 21  2  0  0  0  0
 19 22  1  0  0  0  0
 21 23  1  0  0  0  0
 21 39  1  0  0  0  0
 22 24  2  0  0  0  0
 22 40  1  0  0  0  0
 23 25  2  0  0  0  0
 23 42  1  0  0  0  0
 24 25  1  0  0  0  0
 24 43  1  0  0  0  0
 25 44  1  0  0  0  0
M  END
> <PUBCHEM_COMPOUND_CID>
3063087

> <PUBCHEM_CONFORMER_RMSD>
1

> <PUBCHEM_CONFORMER_DIVERSEORDER>
1
165
92
146
17
110
34
32
157
65
3
57
145
72
125
78
15
95
160
4
150
101
114
47
60
126
16
22
73
89
141
163
44
142
75
107
138
113
137
5
71
96
132
38
69
85
49
153
152
91
148
50
29
13
24
12
68
159
25
116
149
130
14
134
76
133
120
161
104
9
164
112
52
155
45
93
109
77
40
83
111
156
162
51
158
131
19
87
135
31
79
117
147
74
115
53
99
58
94
28
46
119
37
98
63
48
88
64
103
54
6
81
27
70
143
144
124
121
66
123
108
36
8
61
67
128
43
26
10
105
7
127
100
11
2
151
35
90
122
33
86
140
18
41
80
42
56
55
97
136
102
82
30
39
21
129
20
59
62
23
84
139
154
118
106

> <PUBCHEM_MMFF94_PARTIAL_CHARGES>
35
1 -0.68
10 -0.01
11 0.28
12 0.34
13 0.33
14 0.28
15 0.33
16 0.45
17 0.14
18 0.28
19 -0.14
2 -0.68
20 0.66
21 -0.15
22 -0.15
23 -0.15
24 -0.15
25 -0.15
3 -0.68
36 0.4
37 0.4
38 0.4
39 0.15
4 -0.57
40 0.15
41 0.4
42 0.15
43 0.15
44 0.15
45 0.5
5 -0.68
6 -0.65
7 -0.57
8 -0.16
9 -0.36

> <PUBCHEM_EFFECTIVE_ROTOR_COUNT>
11

> <PUBCHEM_PHARMACOPHORE_FEATURES>
13
1 1 acceptor
1 1 donor
1 2 acceptor
1 2 donor
1 3 acceptor
1 3 donor
1 4 acceptor
1 5 acceptor
1 5 donor
1 6 acceptor
1 7 acceptor
3 6 7 20 anion
6 19 21 22 23 24 25 rings

> <PUBCHEM_HEAVY_ATOM_COUNT>
25

> <PUBCHEM_ATOM_DEF_STEREO_COUNT>
4

> <PUBCHEM_ATOM_UDEF_STEREO_COUNT>
0

> <PUBCHEM_BOND_DEF_STEREO_COUNT>
0

> <PUBCHEM_BOND_UDEF_STEREO_COUNT>
0

> <PUBCHEM_ISOTOPIC_ATOM_COUNT>
0

> <PUBCHEM_COMPONENT_COUNT>
1

> <PUBCHEM_CACTVS_TAUTO_COUNT>
10

> <PUBCHEM_CONFORMER_ID>
002EBD2F00000001

> <PUBCHEM_MMFF94_ENERGY>
62.907

> <PUBCHEM_FEATURE_SELFOVERLAP>
66.07

> <PUBCHEM_SHAPE_FINGERPRINT>
11089746 13 15791728603608941196
11961588 58 17240486965895986856
12166972 35 18336272314136872444
12507557 5 10881690083256413919
12553582 1 17845632808157289277
13103583 49 13973964328781149613
13631057 29 18334011731352365403
13673619 4 18200876279328675473
14251732 14 18260547870083605459
14251757 5 18338518676063518382
14251764 18 10375861978990046433
14251764 30 17917993922949284911
14466204 15 10375881770405269711
14528608 73 17530963592446847140
14931854 50 17968926605069290175
15142383 8 13686306742437577298
15183329 4 18260270724914061646
15537594 2 17131832053600954510
17844677 252 16989123149608381688
17980427 23 10737295640485856731
1813 80 15339126757816219264
18335252 98 18341054133292353682
19784866 140 17846780689374410976
20511986 3 7997685351486656612
21054139 6 18186798084685559394
21150785 3 18041002873370943518
21521721 280 17988082313231290874
23559900 14 18338223990626793561
2767999 5 13334733548464212014
2838139 119 16805323284541425508
312425 54 13470691442741428566
329604 57 18411136947995308938
33382 64 15841558436198886678
3737641 26 16629978624187783254
4072396 5 8142093060999890264
4325135 7 18040156214715004103
484989 97 18338526356139874250
497634 4 18260547810297312509
5207 217 17603870043488801370
59755656 215 17775289335335476790
6669772 16 17978229692688761148
7226269 152 10665223752643890863
7495541 125 17846775222187212696
8217 86 18335703909611752219
8863177 126 17987233524620238647

> <PUBCHEM_SHAPE_MULTIPOLES>
457.57
15.86
2.2
1.6
0.75
0.54
-0.26
4.92
7.61
-2.16
-0.41
0.34
-0.45
-0.18

> <PUBCHEM_SHAPE_SELFOVERLAP>
934.723

> <PUBCHEM_SHAPE_VOLUME>
263.1

> <PUBCHEM_COORDINATE_TYPE>
2
5
10