40607951
  -OEChem-05072106003D

 42 43  0     1  0  0  0  0  0999 V2000
    2.0896    0.4058   -0.2484 O   0  0  0  0  0  0  0  0  0  0  0  0
    0.8533   -1.3815   -1.2262 O   0  0  0  0  0  0  0  0  0  0  0  0
    3.2842   -1.5218    0.3516 O   0  0  0  0  0  0  0  0  0  0  0  0
   -0.8677   -1.2638    1.1297 O   0  0  0  0  0  0  0  0  0  0  0  0
   -0.3744    1.9287   -0.5353 O   0  0  0  0  0  0  0  0  0  0  0  0
   -1.6874    0.0291    2.8598 O   0  0  0  0  0  0  0  0  0  0  0  0
   -1.5282    2.7853    1.2735 O   0  0  0  0  0  0  0  0  0  0  0  0
   -2.1016   -1.1507   -1.5623 N   0  0  0  0  0  0  0  0  0  0  0  0
   -3.2899   -0.8573   -1.7715 N   0  3  0  0  0  0  0  0  0  0  0  0
   -4.3846   -0.5995   -1.9618 N   0  5  0  0  0  0  0  0  0  0  0  0
    1.1645   -0.6668   -0.0215 C   0  0  2  0  0  0  0  0  0  0  0  0
   -0.1199   -0.1512    0.6420 C   0  0  1  0  0  0  0  0  0  0  0  0
   -0.9874    0.6554   -0.3330 C   0  0  2  0  0  0  0  0  0  0  0  0
    1.9551   -1.6054    0.8743 C   0  0  0  0  0  0  0  0  0  0  0  0
   -1.1431   -0.0437   -1.6863 C   0  0  1  0  0  0  0  0  0  0  0  0
    3.3951   -0.1808   -0.1446 C   0  0  0  0  0  0  0  0  0  0  0  0
    0.1845   -0.5878   -2.2050 C   0  0  0  0  0  0  0  0  0  0  0  0
    4.2207    0.6509    0.8299 C   0  0  0  0  0  0  0  0  0  0  0  0
    4.0454   -0.2191   -1.5214 C   0  0  0  0  0  0  0  0  0  0  0  0
   -1.6104   -1.0295    2.2511 C   0  0  0  0  0  0  0  0  0  0  0  0
   -0.7390    2.9051    0.3461 C   0  0  0  0  0  0  0  0  0  0  0  0
   -2.3373   -2.2794    2.6457 C   0  0  0  0  0  0  0  0  0  0  0  0
   -0.0216    4.1782    0.0136 C   0  0  0  0  0  0  0  0  0  0  0  0
    0.1909    0.4945    1.4751 H   0  0  0  0  0  0  0  0  0  0  0  0
   -1.9937    0.7919    0.0850 H   0  0  0  0  0  0  0  0  0  0  0  0
    1.9862   -1.2640    1.9151 H   0  0  0  0  0  0  0  0  0  0  0  0
    1.6170   -2.6449    0.8377 H   0  0  0  0  0  0  0  0  0  0  0  0
   -1.5071    0.6776   -2.4318 H   0  0  0  0  0  0  0  0  0  0  0  0
    0.0207   -1.2219   -3.0831 H   0  0  0  0  0  0  0  0  0  0  0  0
    0.8463    0.2286   -2.5165 H   0  0  0  0  0  0  0  0  0  0  0  0
    4.3160    1.6864    0.4868 H   0  0  0  0  0  0  0  0  0  0  0  0
    5.2192    0.2239    0.9704 H   0  0  0  0  0  0  0  0  0  0  0  0
    3.7401    0.6811    1.8145 H   0  0  0  0  0  0  0  0  0  0  0  0
    4.1131    0.7832   -1.9571 H   0  0  0  0  0  0  0  0  0  0  0  0
    3.4550   -0.8324   -2.2112 H   0  0  0  0  0  0  0  0  0  0  0  0
    5.0462   -0.6613   -1.4760 H   0  0  0  0  0  0  0  0  0  0  0  0
   -3.0109   -2.5850    1.8411 H   0  0  0  0  0  0  0  0  0  0  0  0
   -2.9316   -2.0856    3.5432 H   0  0  0  0  0  0  0  0  0  0  0  0
   -1.6179   -3.0715    2.8681 H   0  0  0  0  0  0  0  0  0  0  0  0
    1.0579    4.0244    0.0868 H   0  0  0  0  0  0  0  0  0  0  0  0
   -0.3119    4.9551    0.7267 H   0  0  0  0  0  0  0  0  0  0  0  0
   -0.2969    4.5069   -0.9916 H   0  0  0  0  0  0  0  0  0  0  0  0
  1 11  1  0  0  0  0
  1 16  1  0  0  0  0
  2 11  1  0  0  0  0
  2 17  1  0  0  0  0
  3 14  1  0  0  0  0
  3 16  1  0  0  0  0
  4 12  1  0  0  0  0
  4 20  1  0  0  0  0
  5 13  1  0  0  0  0
  5 21  1  0  0  0  0
  6 20  2  0  0  0  0
  7 21  2  0  0  0  0
  8  9  2  0  0  0  0
  8 15  1  0  0  0  0
  9 10  2  0  0  0  0
 11 12  1  0  0  0  0
 11 14  1  0  0  0  0
 12 13  1  0  0  0  0
 12 24  1  0  0  0  0
 13 15  1  0  0  0  0
 13 25  1  0  0  0  0
 14 26  1  0  0  0  0
 14 27  1  0  0  0  0
 15 17  1  0  0  0  0
 15 28  1  0  0  0  0
 16 18  1  0  0  0  0
 16 19  1  0  0  0  0
 17 29  1  0  0  0  0
 17 30  1  0  0  0  0
 18 31  1  0  0  0  0
 18 32  1  0  0  0  0
 18 33  1  0  0  0  0
 19 34  1  0  0  0  0
 19 35  1  0  0  0  0
 19 36  1  0  0  0  0
 20 22  1  0  0  0  0
 21 23  1  0  0  0  0
 22 37  1  0  0  0  0
 22 38  1  0  0  0  0
 22 39  1  0  0  0  0
 23 40  1  0  0  0  0
 23 41  1  0  0  0  0
 23 42  1  0  0  0  0
M  CHG  2   9   1  10  -1
M  END
> <PUBCHEM_COMPOUND_CID>
40607951

> <PUBCHEM_CONFORMER_RMSD>
0.8

> <PUBCHEM_CONFORMER_DIVERSEORDER>
1
15
19
6
10
18
7
17
5
20
23
13
2
21
8
16
9
14
22
11
12
3
4

> <PUBCHEM_MMFF94_PARTIAL_CHARGES>
21
1 -0.56
10 -0.37
11 0.56
12 0.28
13 0.28
14 0.28
15 0.25
16 0.56
17 0.28
2 -0.56
20 0.66
21 0.66
22 0.06
23 0.06
3 -0.56
4 -0.43
5 -0.43
6 -0.57
7 -0.57
8 -0.56
9 0.69

> <PUBCHEM_EFFECTIVE_ROTOR_COUNT>
6.8

> <PUBCHEM_PHARMACOPHORE_FEATURES>
8
1 1 acceptor
1 2 acceptor
1 3 acceptor
1 6 acceptor
1 7 acceptor
3 16 18 19 hydrophobe
5 1 3 11 14 16 rings
6 2 11 12 13 15 17 rings

> <PUBCHEM_HEAVY_ATOM_COUNT>
23

> <PUBCHEM_ATOM_DEF_STEREO_COUNT>
4

> <PUBCHEM_ATOM_UDEF_STEREO_COUNT>
0

> <PUBCHEM_BOND_DEF_STEREO_COUNT>
0

> <PUBCHEM_BOND_UDEF_STEREO_COUNT>
0

> <PUBCHEM_ISOTOPIC_ATOM_COUNT>
0

> <PUBCHEM_COMPONENT_COUNT>
1

> <PUBCHEM_CACTVS_TAUTO_COUNT>
1

> <PUBCHEM_CONFORMER_ID>
026BA0CF00000001

> <PUBCHEM_MMFF94_ENERGY>
48.6233

> <PUBCHEM_FEATURE_SELFOVERLAP>
40.687

> <PUBCHEM_SHAPE_FINGERPRINT>
11578080 2 17315372567964611461
12293681 4 18409454696117103657
12592029 89 17404003216441719973
12788726 201 18337378336454507651
14787075 74 18187367584806887845
14817 1 9718308610717084301
15852999 172 17168412775661529986
15906896 17 18122070801283064313
16945 1 17531236266676976110
17876694 64 17489314139363194921
17980427 23 17699606694689889665
19765921 60 17607221204780805693
20600515 1 17417242272821960149
20602899 9 17241315863812585666
21524375 3 17545321882692263968
22344851 12 16246333440805259181
229495 10 17914914049045827906
23352939 185 17559943488749582880
23419403 2 17825954998604758377
23558518 356 18047185246385415630
23559900 14 17240754074302193938
298252 57 17408788930985385224
81228 2 18336262336700970676
9981440 41 18193525988288889920

> <PUBCHEM_SHAPE_MULTIPOLES>
417.3
5.68
3.09
2.56
3.55
3.75
-0.06
-1.98
-1.52
-1.31
2.17
-2.57
-0.95
0.48

> <PUBCHEM_SHAPE_SELFOVERLAP>
863.299

> <PUBCHEM_SHAPE_VOLUME>
236.4

> <PUBCHEM_COORDINATE_TYPE>
2
5
10