440545
  -OEChem-05072106003D

 24 24  0     1  0  0  0  0  0999 V2000
   -0.5785   -1.0603    0.6506 O   0  0  0  0  0  0  0  0  0  0  0  0
   -0.2346    1.8380    1.2550 O   0  0  0  0  0  0  0  0  0  0  0  0
   -1.0311   -0.3638   -1.5672 O   0  0  0  0  0  0  0  0  0  0  0  0
    1.6558    0.5603   -1.5845 O   0  0  0  0  0  0  0  0  0  0  0  0
    3.0634   -0.8182    0.3588 O   0  0  0  0  0  0  0  0  0  0  0  0
   -3.2490   -0.7898    0.0524 O   0  0  0  0  0  0  0  0  0  0  0  0
   -0.0741    1.2410   -0.0311 C   0  0  2  0  0  0  0  0  0  0  0  0
   -1.0129    0.0205   -0.1888 C   0  0  2  0  0  0  0  0  0  0  0  0
    1.4024    0.8621   -0.2130 C   0  0  1  0  0  0  0  0  0  0  0  0
    1.7476   -0.3607    0.6409 C   0  0  1  0  0  0  0  0  0  0  0  0
    0.7569   -1.4901    0.3960 C   0  0  0  0  0  0  0  0  0  0  0  0
   -2.4458    0.3609    0.2310 C   0  0  0  0  0  0  0  0  0  0  0  0
   -0.3320    1.9950   -0.7863 H   0  0  0  0  0  0  0  0  0  0  0  0
    2.0608    1.6942    0.0597 H   0  0  0  0  0  0  0  0  0  0  0  0
    1.7103   -0.0758    1.6989 H   0  0  0  0  0  0  0  0  0  0  0  0
    0.8369   -1.9080   -0.6144 H   0  0  0  0  0  0  0  0  0  0  0  0
    0.9748   -2.3211    1.0765 H   0  0  0  0  0  0  0  0  0  0  0  0
   -2.8582    1.1655   -0.3863 H   0  0  0  0  0  0  0  0  0  0  0  0
   -2.5055    0.6348    1.2886 H   0  0  0  0  0  0  0  0  0  0  0  0
   -1.0659    2.3417    1.2455 H   0  0  0  0  0  0  0  0  0  0  0  0
   -1.8681   -0.8261   -1.7410 H   0  0  0  0  0  0  0  0  0  0  0  0
    1.0140   -0.1039   -1.8844 H   0  0  0  0  0  0  0  0  0  0  0  0
    3.1066   -1.0307   -0.5892 H   0  0  0  0  0  0  0  0  0  0  0  0
   -4.1543   -0.5530    0.3168 H   0  0  0  0  0  0  0  0  0  0  0  0
  1  8  1  0  0  0  0
  1 11  1  0  0  0  0
  2  7  1  0  0  0  0
  2 20  1  0  0  0  0
  3  8  1  0  0  0  0
  3 21  1  0  0  0  0
  4  9  1  0  0  0  0
  4 22  1  0  0  0  0
  5 10  1  0  0  0  0
  5 23  1  0  0  0  0
  6 12  1  0  0  0  0
  6 24  1  0  0  0  0
  7  8  1  0  0  0  0
  7  9  1  0  0  0  0
  7 13  1  0  0  0  0
  8 12  1  0  0  0  0
  9 10  1  0  0  0  0
  9 14  1  0  0  0  0
 10 11  1  0  0  0  0
 10 15  1  0  0  0  0
 11 16  1  0  0  0  0
 11 17  1  0  0  0  0
 12 18  1  0  0  0  0
 12 19  1  0  0  0  0
M  END
> <PUBCHEM_COMPOUND_CID>
440545

> <PUBCHEM_CONFORMER_RMSD>
0.6

> <PUBCHEM_CONFORMER_DIVERSEORDER>
2
3
4
1

> <PUBCHEM_MMFF94_PARTIAL_CHARGES>
17
1 -0.56
10 0.28
11 0.28
12 0.28
2 -0.68
20 0.4
21 0.4
22 0.4
23 0.4
24 0.4
3 -0.68
4 -0.68
5 -0.68
6 -0.68
7 0.28
8 0.56
9 0.28

> <PUBCHEM_EFFECTIVE_ROTOR_COUNT>
2.2

> <PUBCHEM_PHARMACOPHORE_FEATURES>
12
1 1 acceptor
1 2 acceptor
1 2 donor
1 3 acceptor
1 3 donor
1 4 acceptor
1 4 donor
1 5 acceptor
1 5 donor
1 6 acceptor
1 6 donor
6 1 7 8 9 10 11 rings

> <PUBCHEM_HEAVY_ATOM_COUNT>
12

> <PUBCHEM_ATOM_DEF_STEREO_COUNT>
4

> <PUBCHEM_ATOM_UDEF_STEREO_COUNT>
0

> <PUBCHEM_BOND_DEF_STEREO_COUNT>
0

> <PUBCHEM_BOND_UDEF_STEREO_COUNT>
0

> <PUBCHEM_ISOTOPIC_ATOM_COUNT>
0

> <PUBCHEM_COMPONENT_COUNT>
1

> <PUBCHEM_CACTVS_TAUTO_COUNT>
1

> <PUBCHEM_CONFORMER_ID>
0006B8E100000002

> <PUBCHEM_MMFF94_ENERGY>
32.8883

> <PUBCHEM_FEATURE_SELFOVERLAP>
60.967

> <PUBCHEM_SHAPE_FINGERPRINT>
12423570 1 10850302345797483789
13024252 1 13262971628786395194
137420 1 12854697685220498571
14128692 85 18259984868363892090
16945 1 17822011999314581987
18185500 45 18338228267601297970
21040471 1 18116155664953897536
23235685 24 18333446534708665378
23552423 10 18115030684244130219
241688 4 17539406531635532978
29004967 10 17749385923452795784
369184 2 17774426222902042250
4369600 1 18270698557015245660
5084963 1 17749103396161572755
528886 8 17677880249908188213
68250623 7 17767987336591240574

> <PUBCHEM_SHAPE_MULTIPOLES>
211.74
3.47
1.46
1.12
0.87
0.11
0.32
-0.95
-0.05
-0.18
-0.34
-0.1
0.26
-0.33

> <PUBCHEM_SHAPE_SELFOVERLAP>
425.797

> <PUBCHEM_SHAPE_VOLUME>
122.6

> <PUBCHEM_COORDINATE_TYPE>
2
5
10