443711
  -OEChem-05072106003D

 30 30  0     1  0  0  0  0  0999 V2000
   -3.5844   -0.2522    0.0359 P   0  0  0  0  0  0  0  0  0  0  0  0
    0.6987   -0.6435    0.5574 O   0  0  0  0  0  0  0  0  0  0  0  0
    1.1559    2.8641   -0.0115 O   0  0  0  0  0  0  0  0  0  0  0  0
    2.8222   -1.2700    1.3869 O   0  0  0  0  0  0  0  0  0  0  0  0
   -2.0607   -0.0828    0.5548 O   0  0  0  0  0  0  0  0  0  0  0  0
    1.9603   -2.7850   -0.6837 O   0  0  0  0  0  0  0  0  0  0  0  0
   -3.4165   -0.8042   -1.4748 O   0  0  0  0  0  0  0  0  0  0  0  0
   -4.0642    1.2772   -0.1781 O   0  0  0  0  0  0  0  0  0  0  0  0
   -4.4695   -1.0755    0.9252 O   0  0  0  0  0  0  0  0  0  0  0  0
    3.6732    1.1295   -0.6250 N   0  0  0  0  0  0  0  0  0  0  0  0
    2.5200    0.8564    0.2204 C   0  0  1  0  0  0  0  0  0  0  0  0
    1.2462    1.4852   -0.3133 C   0  0  1  0  0  0  0  0  0  0  0  0
    2.1256   -0.6264    0.3242 C   0  0  2  0  0  0  0  0  0  0  0  0
    0.1948    0.6975    0.4532 C   0  0  1  0  0  0  0  0  0  0  0  0
   -1.1607    0.6819   -0.2304 C   0  0  0  0  0  0  0  0  0  0  0  0
    2.3589   -1.4524   -0.9411 C   0  0  0  0  0  0  0  0  0  0  0  0
    2.7450    1.2523    1.2195 H   0  0  0  0  0  0  0  0  0  0  0  0
    1.1392    1.3435   -1.3960 H   0  0  0  0  0  0  0  0  0  0  0  0
    0.0783    1.0781    1.4763 H   0  0  0  0  0  0  0  0  0  0  0  0
   -1.0793    0.2160   -1.2179 H   0  0  0  0  0  0  0  0  0  0  0  0
   -1.5424    1.7012   -0.3435 H   0  0  0  0  0  0  0  0  0  0  0  0
    3.4191   -1.4820   -1.2112 H   0  0  0  0  0  0  0  0  0  0  0  0
    1.7717   -1.0777   -1.7854 H   0  0  0  0  0  0  0  0  0  0  0  0
    3.8461    2.1339   -0.6498 H   0  0  0  0  0  0  0  0  0  0  0  0
    3.4755    0.8621   -1.5884 H   0  0  0  0  0  0  0  0  0  0  0  0
    1.9046    3.3068   -0.4458 H   0  0  0  0  0  0  0  0  0  0  0  0
    2.8095   -2.2287    1.2283 H   0  0  0  0  0  0  0  0  0  0  0  0
    2.1160   -3.2945   -1.4971 H   0  0  0  0  0  0  0  0  0  0  0  0
   -4.2191   -1.0508   -1.9819 H   0  0  0  0  0  0  0  0  0  0  0  0
   -5.0013    1.4528   -0.4087 H   0  0  0  0  0  0  0  0  0  0  0  0
  1  5  1  0  0  0  0
  1  7  1  0  0  0  0
  1  8  1  0  0  0  0
  1  9  2  0  0  0  0
  2 13  1  0  0  0  0
  2 14  1  0  0  0  0
  3 12  1  0  0  0  0
  3 26  1  0  0  0  0
  4 13  1  0  0  0  0
  4 27  1  0  0  0  0
  5 15  1  0  0  0  0
  6 16  1  0  0  0  0
  6 28  1  0  0  0  0
  7 29  1  0  0  0  0
  8 30  1  0  0  0  0
 10 11  1  0  0  0  0
 10 24  1  0  0  0  0
 10 25  1  0  0  0  0
 11 12  1  0  0  0  0
 11 13  1  0  0  0  0
 11 17  1  0  0  0  0
 12 14  1  0  0  0  0
 12 18  1  0  0  0  0
 13 16  1  0  0  0  0
 14 15  1  0  0  0  0
 14 19  1  0  0  0  0
 15 20  1  0  0  0  0
 15 21  1  0  0  0  0
 16 22  1  0  0  0  0
 16 23  1  0  0  0  0
M  END
> <PUBCHEM_COMPOUND_CID>
443711

> <PUBCHEM_CONFORMER_RMSD>
0.6

> <PUBCHEM_CONFORMER_DIVERSEORDER>
11
54
57
25
45
4
44
56
17
26
43
29
53
19
30
6
18
21
52
55
50
31
13
28
49
7
22
5
47
34
46
51
23
41
24
12
27
10
33
36
48
37
9
16
20
38
32
1
14
35
2
39
40
3
15
8
42

> <PUBCHEM_MMFF94_PARTIAL_CHARGES>
23
1 1.51
10 -0.99
11 0.27
12 0.28
13 0.56
14 0.28
15 0.28
16 0.28
2 -0.56
24 0.36
25 0.36
26 0.4
27 0.4
28 0.4
29 0.5
3 -0.68
30 0.5
4 -0.68
5 -0.55
6 -0.68
7 -0.77
8 -0.77
9 -0.7

> <PUBCHEM_EFFECTIVE_ROTOR_COUNT>
5

> <PUBCHEM_PHARMACOPHORE_FEATURES>
14
1 10 cation
1 10 donor
1 2 acceptor
1 3 acceptor
1 3 donor
1 4 acceptor
1 4 donor
1 6 acceptor
1 6 donor
1 7 acceptor
1 8 acceptor
1 9 acceptor
4 1 7 8 9 anion
5 2 11 12 13 14 rings

> <PUBCHEM_HEAVY_ATOM_COUNT>
16

> <PUBCHEM_ATOM_DEF_STEREO_COUNT>
3

> <PUBCHEM_ATOM_UDEF_STEREO_COUNT>
1

> <PUBCHEM_BOND_DEF_STEREO_COUNT>
0

> <PUBCHEM_BOND_UDEF_STEREO_COUNT>
0

> <PUBCHEM_ISOTOPIC_ATOM_COUNT>
0

> <PUBCHEM_COMPONENT_COUNT>
1

> <PUBCHEM_CACTVS_TAUTO_COUNT>
1

> <PUBCHEM_CONFORMER_ID>
0006C53F0000000B

> <PUBCHEM_MMFF94_ENERGY>
0.3167

> <PUBCHEM_FEATURE_SELFOVERLAP>
71.141

> <PUBCHEM_SHAPE_FINGERPRINT>
10922523 26 18339920425040222949
10980938 120 18411419535458200564
116883 192 18051974718883319588
12616999 72 18334868233302837294
12932764 1 17775000232734029769
13296908 3 18114180835218488467
14144814 61 18413109459355629345
14251717 144 18411697711831352359
14252887 29 18341897363863089474
15442244 35 18197502813961092017
15477762 27 18412266146457880551
15757776 16 18408038511796742120
16945 1 18339643438093359408
18186145 218 17749107755912093827
20339313 130 18411985728138219825
20645477 70 18409722950805026351
20871998 22 18268710502769414602
2255824 54 18268147745768138476
23402539 116 18409161083193594650
23402655 69 18410854352401555221
23557571 272 16081357592720843325
3060560 45 18343025531739290508
58051976 378 18263081187881871931
581208 293 18272927215529289798
7364860 26 18341614866552520680
81228 2 17905045854882460048
81539 233 18187367687859411052
9709674 26 18335989756918067323

> <PUBCHEM_SHAPE_MULTIPOLES>
281.19
7.3
2.23
1.01
8.24
0.02
0.03
-1.19
0.12
-1.73
0.36
0.04
-0.38
0.03

> <PUBCHEM_SHAPE_SELFOVERLAP>
550.216

> <PUBCHEM_SHAPE_VOLUME>
171.1

> <PUBCHEM_COORDINATE_TYPE>
2
5
10