46936908
  -OEChem-05072106003D

 44 45  0     1  0  0  0  0  0999 V2000
   -3.9157   -1.3054    0.5940 O   0  0  0  0  0  0  0  0  0  0  0  0
   -2.7539    1.9778   -0.2794 O   0  0  0  0  0  0  0  0  0  0  0  0
    1.8544    1.5050    1.6424 O   0  0  0  0  0  0  0  0  0  0  0  0
    3.6684    2.4792   -0.2575 O   0  0  0  0  0  0  0  0  0  0  0  0
   -3.3659   -1.0022   -2.2794 O   0  0  0  0  0  0  0  0  0  0  0  0
    4.4238   -0.1509   -1.3517 O   0  0  0  0  0  0  0  0  0  0  0  0
    4.0157   -2.5690    1.0060 O   0  0  0  0  0  0  0  0  0  0  0  0
   -0.6122    0.4351    0.8157 N   0  0  0  0  0  0  0  0  0  0  0  0
   -1.7777   -0.1972    0.1981 C   0  0  2  0  0  0  0  0  0  0  0  0
    0.5324    0.4122   -0.0984 C   0  0  1  0  0  0  0  0  0  0  0  0
   -2.4296    0.7152   -0.8562 C   0  0  1  0  0  0  0  0  0  0  0  0
   -2.7842   -0.7123    1.2473 C   0  0  1  0  0  0  0  0  0  0  0  0
    1.5112    1.5489    0.2539 C   0  0  2  0  0  0  0  0  0  0  0  0
    2.7906    1.3981   -0.5704 C   0  0  2  0  0  0  0  0  0  0  0  0
   -3.7059    0.0783   -1.4119 C   0  0  2  0  0  0  0  0  0  0  0  0
    3.4993    0.0644   -0.2827 C   0  0  1  0  0  0  0  0  0  0  0  0
    1.2108   -0.9355   -0.1014 C   0  0  0  0  0  0  0  0  0  0  0  0
   -4.6159   -0.4393   -0.3004 C   0  0  0  0  0  0  0  0  0  0  0  0
    2.5449   -1.1071   -0.1711 C   0  0  0  0  0  0  0  0  0  0  0  0
   -3.2417    0.2856    2.3129 C   0  0  0  0  0  0  0  0  0  0  0  0
    3.1512   -2.4809   -0.1099 C   0  0  0  0  0  0  0  0  0  0  0  0
   -1.4714   -1.1030   -0.3430 H   0  0  0  0  0  0  0  0  0  0  0  0
    0.2169    0.6003   -1.1308 H   0  0  0  0  0  0  0  0  0  0  0  0
   -1.7422    0.9054   -1.6865 H   0  0  0  0  0  0  0  0  0  0  0  0
   -2.3007   -1.5362    1.7886 H   0  0  0  0  0  0  0  0  0  0  0  0
    1.0540    2.5290    0.0746 H   0  0  0  0  0  0  0  0  0  0  0  0
   -0.8443    1.3965    1.0640 H   0  0  0  0  0  0  0  0  0  0  0  0
    2.5590    1.4824   -1.6401 H   0  0  0  0  0  0  0  0  0  0  0  0
   -4.2706    0.8054   -2.0070 H   0  0  0  0  0  0  0  0  0  0  0  0
    4.0957    0.1431    0.6336 H   0  0  0  0  0  0  0  0  0  0  0  0
    0.5825   -1.8213   -0.0469 H   0  0  0  0  0  0  0  0  0  0  0  0
   -5.4305   -1.0304   -0.7325 H   0  0  0  0  0  0  0  0  0  0  0  0
   -5.0708    0.3831    0.2607 H   0  0  0  0  0  0  0  0  0  0  0  0
   -3.7352    1.1622    1.8868 H   0  0  0  0  0  0  0  0  0  0  0  0
   -2.4017    0.6303    2.9233 H   0  0  0  0  0  0  0  0  0  0  0  0
   -3.9736   -0.1875    2.9771 H   0  0  0  0  0  0  0  0  0  0  0  0
   -3.1420    2.5304   -0.9790 H   0  0  0  0  0  0  0  0  0  0  0  0
    3.7231   -2.6871   -1.0204 H   0  0  0  0  0  0  0  0  0  0  0  0
    2.3880   -3.2604   -0.0113 H   0  0  0  0  0  0  0  0  0  0  0  0
    2.0822    0.5933    1.8869 H   0  0  0  0  0  0  0  0  0  0  0  0
    3.2018    3.3063   -0.4667 H   0  0  0  0  0  0  0  0  0  0  0  0
   -2.8188   -0.6408   -2.9974 H   0  0  0  0  0  0  0  0  0  0  0  0
    3.9140   -0.2965   -2.1672 H   0  0  0  0  0  0  0  0  0  0  0  0
    4.3991   -3.4626    1.0033 H   0  0  0  0  0  0  0  0  0  0  0  0
  1 12  1  0  0  0  0
  1 18  1  0  0  0  0
  2 11  1  0  0  0  0
  2 37  1  0  0  0  0
  3 13  1  0  0  0  0
  3 40  1  0  0  0  0
  4 14  1  0  0  0  0
  4 41  1  0  0  0  0
  5 15  1  0  0  0  0
  5 42  1  0  0  0  0
  6 16  1  0  0  0  0
  6 43  1  0  0  0  0
  7 21  1  0  0  0  0
  7 44  1  0  0  0  0
  8  9  1  0  0  0  0
  8 10  1  0  0  0  0
  8 27  1  0  0  0  0
  9 11  1  0  0  0  0
  9 12  1  0  0  0  0
  9 22  1  0  0  0  0
 10 13  1  0  0  0  0
 10 17  1  0  0  0  0
 10 23  1  0  0  0  0
 11 15  1  0  0  0  0
 11 24  1  0  0  0  0
 12 20  1  0  0  0  0
 12 25  1  0  0  0  0
 13 14  1  0  0  0  0
 13 26  1  0  0  0  0
 14 16  1  0  0  0  0
 14 28  1  0  0  0  0
 15 18  1  0  0  0  0
 15 29  1  0  0  0  0
 16 19  1  0  0  0  0
 16 30  1  0  0  0  0
 17 19  2  0  0  0  0
 17 31  1  0  0  0  0
 18 32  1  0  0  0  0
 18 33  1  0  0  0  0
 19 21  1  0  0  0  0
 20 34  1  0  0  0  0
 20 35  1  0  0  0  0
 20 36  1  0  0  0  0
 21 38  1  0  0  0  0
 21 39  1  0  0  0  0
M  END
> <PUBCHEM_COMPOUND_CID>
46936908

> <PUBCHEM_CONFORMER_RMSD>
0.8

> <PUBCHEM_CONFORMER_DIVERSEORDER>
1
10
8
11
9
7
6
3
5
13
12
4
2

> <PUBCHEM_MMFF94_PARTIAL_CHARGES>
28
1 -0.56
10 0.41
11 0.28
12 0.28
13 0.28
14 0.28
15 0.28
16 0.42
17 -0.29
18 0.28
19 -0.28
2 -0.68
21 0.42
27 0.36
3 -0.68
31 0.15
37 0.4
4 -0.68
40 0.4
41 0.4
42 0.4
43 0.4
44 0.4
5 -0.68
6 -0.68
7 -0.68
8 -0.9
9 0.27

> <PUBCHEM_EFFECTIVE_ROTOR_COUNT>
5

> <PUBCHEM_PHARMACOPHORE_FEATURES>
17
1 1 acceptor
1 2 acceptor
1 2 donor
1 3 acceptor
1 3 donor
1 4 acceptor
1 4 donor
1 5 acceptor
1 5 donor
1 6 acceptor
1 6 donor
1 7 acceptor
1 7 donor
1 8 cation
1 8 donor
6 1 9 11 12 15 18 rings
6 10 13 14 16 17 19 rings

> <PUBCHEM_HEAVY_ATOM_COUNT>
21

> <PUBCHEM_ATOM_DEF_STEREO_COUNT>
8

> <PUBCHEM_ATOM_UDEF_STEREO_COUNT>
0

> <PUBCHEM_BOND_DEF_STEREO_COUNT>
0

> <PUBCHEM_BOND_UDEF_STEREO_COUNT>
0

> <PUBCHEM_ISOTOPIC_ATOM_COUNT>
0

> <PUBCHEM_COMPONENT_COUNT>
1

> <PUBCHEM_CACTVS_TAUTO_COUNT>
1

> <PUBCHEM_CONFORMER_ID>
02CC334C00000001

> <PUBCHEM_MMFF94_ENERGY>
45.3846

> <PUBCHEM_FEATURE_SELFOVERLAP>
86.299

> <PUBCHEM_SHAPE_FINGERPRINT>
10062212 137 18201434719012664819
10366900 7 18261685868681348914
10498660 4 16370720426767203949
10646746 165 16588020238327422436
11405975 8 18335139731076021425
11552529 35 18055927730032634291
11615757 297 18060423533845235217
12236239 1 17632303379791708345
12553582 1 17917714573791397030
13134695 92 18409722937861959332
13224815 77 18410855490288079849
13296908 3 17967819331495925011
13675066 3 13542467570250187509
14289901 80 18408885165535494737
14848160 33 18336828589563526214
15375462 189 17988647410314964474
16752209 62 16128377056552865013
18186145 218 18411149042881443562
19078846 21 17560530503520626872
200 152 18201999937014650061
20281475 54 18412830174585477299
20645477 70 18333729113386813834
21065201 7 16225766315514283531
221490 88 18334019376003586754
2255824 54 18130507551988281424
22646028 1 17989201542848402079
22646028 28 17561366175228164495
22943178 12 17676211281419889059
23526113 38 17894352150892971072
23557571 272 16877943853901489493
23559900 14 17458344113554853918
23596394 208 18187081754442974390
23598291 2 17703796937207518661
2838139 119 15286792264003773398
312423 11 18130516274797606969
3268164 11 16588297350134591431
474 4 17200219641366867960
4921388 177 16371020585189314075
5104073 3 18409730621178676801
5161694 15 17530963540575144271
5281201 14 17894915113525572543
59682541 52 18268125627487989551
6049 1 17603880995766202129
633830 44 18056786396847212892
7615 1 17775567524482513273
77492 1 17704078395099052169
81228 2 17478058155335378160
9709674 26 18113338634854757371

> <PUBCHEM_SHAPE_MULTIPOLES>
386.1
9.38
2.16
1.58
0.96
0.22
0.19
2.03
-1.38
-2.81
0.21
1.69
0.07
-0.28

> <PUBCHEM_SHAPE_SELFOVERLAP>
790.249

> <PUBCHEM_SHAPE_VOLUME>
220.4

> <PUBCHEM_COORDINATE_TYPE>
2
5
10