49859675
  -OEChem-05072106003D

 46 45  0     1  0  0  0  0  0999 V2000
   -4.6137    1.5728    0.8280 O   0  0  0  0  0  0  0  0  0  0  0  0
   -4.0800    0.5995   -1.7609 O   0  0  0  0  0  0  0  0  0  0  0  0
   -6.4651    0.1092   -0.3039 O   0  0  0  0  0  0  0  0  0  0  0  0
   -2.1742    2.3495    0.4914 O   0  0  0  0  0  0  0  0  0  0  0  0
   -6.7308   -2.7822    0.3334 O   0  0  0  0  0  0  0  0  0  0  0  0
    7.5306   -1.7124    0.3854 O   0  5  0  0  0  0  0  0  0  0  0  0
    6.4184   -0.2695    1.7579 O   0  0  0  0  0  0  0  0  0  0  0  0
    0.1118    0.9012    0.1298 N   0  3  0  0  0  0  0  0  0  0  0  0
    6.3739   -0.6411   -1.8653 N   0  3  0  0  0  0  0  0  0  0  0  0
    1.3082    0.0226    0.0181 C   0  0  0  0  0  0  0  0  0  0  0  0
    2.5716    0.8537   -0.1697 C   0  0  0  0  0  0  0  0  0  0  0  0
    3.8504    0.0117   -0.2417 C   0  0  0  0  0  0  0  0  0  0  0  0
   -1.1687    0.1731    0.3031 C   0  0  0  0  0  0  0  0  0  0  0  0
    5.0846    0.9026   -0.4409 C   0  0  0  0  0  0  0  0  0  0  0  0
   -3.7073    0.4977    0.6242 C   0  0  1  0  0  0  0  0  0  0  0  0
   -4.1016   -0.2822   -0.6381 C   0  0  1  0  0  0  0  0  0  0  0  0
    6.4053    0.1346   -0.5856 C   0  0  1  0  0  0  0  0  0  0  0  0
   -2.3283    1.1280    0.4680 C   0  0  0  0  0  0  0  0  0  0  0  0
   -5.5013   -0.9176   -0.5471 C   0  0  1  0  0  0  0  0  0  0  0  0
   -5.6001   -1.9505    0.5745 C   0  0  0  0  0  0  0  0  0  0  0  0
    6.8163   -0.7006    0.6393 C   0  0  0  0  0  0  0  0  0  0  0  0
    1.1467   -0.6429   -0.8364 H   0  0  0  0  0  0  0  0  0  0  0  0
    1.3621   -0.5700    0.9374 H   0  0  0  0  0  0  0  0  0  0  0  0
    2.4778    1.4484   -1.0872 H   0  0  0  0  0  0  0  0  0  0  0  0
    2.6609    1.5677    0.6590 H   0  0  0  0  0  0  0  0  0  0  0  0
    0.0494    1.4970   -0.7076 H   0  0  0  0  0  0  0  0  0  0  0  0
    0.2420    1.5453    0.9224 H   0  0  0  0  0  0  0  0  0  0  0  0
    3.7561   -0.6976   -1.0713 H   0  0  0  0  0  0  0  0  0  0  0  0
    3.9488   -0.5764    0.6772 H   0  0  0  0  0  0  0  0  0  0  0  0
   -1.0796   -0.4474    1.1994 H   0  0  0  0  0  0  0  0  0  0  0  0
   -1.2999   -0.4409   -0.5900 H   0  0  0  0  0  0  0  0  0  0  0  0
    4.9362    1.5294   -1.3302 H   0  0  0  0  0  0  0  0  0  0  0  0
    5.1610    1.5951    0.4072 H   0  0  0  0  0  0  0  0  0  0  0  0
   -3.7023   -0.1275    1.5215 H   0  0  0  0  0  0  0  0  0  0  0  0
   -3.3739   -1.0759   -0.8368 H   0  0  0  0  0  0  0  0  0  0  0  0
    7.2073    0.8688   -0.7325 H   0  0  0  0  0  0  0  0  0  0  0  0
   -5.7650   -1.3676   -1.5117 H   0  0  0  0  0  0  0  0  0  0  0  0
    7.2968   -1.0463   -2.0715 H   0  0  0  0  0  0  0  0  0  0  0  0
    5.7041   -1.4203   -1.8248 H   0  0  0  0  0  0  0  0  0  0  0  0
    6.1169   -0.0475   -2.6652 H   0  0  0  0  0  0  0  0  0  0  0  0
   -5.7351   -1.4766    1.5518 H   0  0  0  0  0  0  0  0  0  0  0  0
   -4.7165   -2.5958    0.5945 H   0  0  0  0  0  0  0  0  0  0  0  0
   -4.6809    2.0710   -0.0047 H   0  0  0  0  0  0  0  0  0  0  0  0
   -4.2875    0.0737   -2.5520 H   0  0  0  0  0  0  0  0  0  0  0  0
   -7.3372   -0.3176   -0.2485 H   0  0  0  0  0  0  0  0  0  0  0  0
   -6.7672   -3.4303    1.0575 H   0  0  0  0  0  0  0  0  0  0  0  0
  1 15  1  0  0  0  0
  1 43  1  0  0  0  0
  2 16  1  0  0  0  0
  2 44  1  0  0  0  0
  3 19  1  0  0  0  0
  3 45  1  0  0  0  0
  4 18  2  0  0  0  0
  5 20  1  0  0  0  0
  5 46  1  0  0  0  0
  6 21  1  0  0  0  0
  7 21  2  0  0  0  0
  8 10  1  0  0  0  0
  8 13  1  0  0  0  0
  8 26  1  0  0  0  0
  8 27  1  0  0  0  0
  9 17  1  0  0  0  0
  9 38  1  0  0  0  0
  9 39  1  0  0  0  0
  9 40  1  0  0  0  0
 10 11  1  0  0  0  0
 10 22  1  0  0  0  0
 10 23  1  0  0  0  0
 11 12  1  0  0  0  0
 11 24  1  0  0  0  0
 11 25  1  0  0  0  0
 12 14  1  0  0  0  0
 12 28  1  0  0  0  0
 12 29  1  0  0  0  0
 13 18  1  0  0  0  0
 13 30  1  0  0  0  0
 13 31  1  0  0  0  0
 14 17  1  0  0  0  0
 14 32  1  0  0  0  0
 14 33  1  0  0  0  0
 15 16  1  0  0  0  0
 15 18  1  0  0  0  0
 15 34  1  0  0  0  0
 16 19  1  0  0  0  0
 16 35  1  0  0  0  0
 17 21  1  0  0  0  0
 17 36  1  0  0  0  0
 19 20  1  0  0  0  0
 19 37  1  0  0  0  0
 20 41  1  0  0  0  0
 20 42  1  0  0  0  0
M  CHG  3   6  -1   8   1   9   1
M  END
> <PUBCHEM_COMPOUND_CID>
49859675

> <PUBCHEM_CONFORMER_RMSD>
1.2

> <PUBCHEM_CONFORMER_DIVERSEORDER>
1
6
18
59
85
68
95
149
153
88
152
26
51
32
105
27
166
24
7
125
108
135
133
109
47
67
48
84
158
58
146
129
72
120
38
25
163
145
165
76
127
132
4
16
107
94
114
63
57
101
99
49
61
74
43
62
131
11
50
103
122
138
140
30
42
69
79
13
141
20
157
98
41
91
160
52
156
33
150
159
144
45
136
65
100
15
53
8
75
137
90
118
81
126
112
37
82
77
143
97
35
23
56
102
104
154
36
110
40
87
73
28
147
83
17
124
130
60
86
128
31
34
5
3
151
111
12
46
66
78
55
22
162
116
93
2
89
96
106
9
123
92
113
164
139
155
14
10
119
134
121
44
80
21
19
39
71
70
115
117
54
161
29
148
142
64

> <PUBCHEM_MMFF94_PARTIAL_CHARGES>
27
1 -0.68
10 0.5
13 0.56
15 0.34
16 0.28
17 0.4
18 0.45
19 0.28
2 -0.68
20 0.28
21 0.91
26 0.45
27 0.45
3 -0.68
38 0.45
39 0.45
4 -0.57
40 0.45
43 0.4
44 0.4
45 0.4
46 0.4
5 -0.68
6 -0.9
7 -0.9
8 -0.91
9 -0.85

> <PUBCHEM_EFFECTIVE_ROTOR_COUNT>
12

> <PUBCHEM_PHARMACOPHORE_FEATURES>
16
1 1 acceptor
1 1 donor
1 2 acceptor
1 2 donor
1 3 acceptor
1 3 donor
1 4 acceptor
1 5 acceptor
1 5 donor
1 6 acceptor
1 7 acceptor
1 8 cation
1 8 donor
1 9 cation
1 9 donor
3 6 7 21 anion

> <PUBCHEM_HEAVY_ATOM_COUNT>
21

> <PUBCHEM_ATOM_DEF_STEREO_COUNT>
4

> <PUBCHEM_ATOM_UDEF_STEREO_COUNT>
0

> <PUBCHEM_BOND_DEF_STEREO_COUNT>
0

> <PUBCHEM_BOND_UDEF_STEREO_COUNT>
0

> <PUBCHEM_ISOTOPIC_ATOM_COUNT>
0

> <PUBCHEM_COMPONENT_COUNT>
1

> <PUBCHEM_CACTVS_TAUTO_COUNT>
10

> <PUBCHEM_CONFORMER_ID>
02F8CC5B00000001

> <PUBCHEM_MMFF94_ENERGY>
29.1696

> <PUBCHEM_FEATURE_SELFOVERLAP>
81.307

> <PUBCHEM_SHAPE_FINGERPRINT>
10066227 112 7997969068225669022
11315181 36 18408606976535969145
12166972 35 17967535709231291412
125118 31 10303824176457252762
13073987 5 16486701260294145898
13288520 33 18343586252852935789
13533116 47 18040715823985527682
13668630 136 18261109673418246498
13862211 1 18408042897190609328
1420 363 17989209256709723556
14211702 104 18410863139920811242
14251757 52 10447922872322935262
14251764 18 18408887339712112620
14729087 3 10809337866903958982
15183329 4 17022619763285760562
15716309 27 16845572015345003452
17093844 174 16630528415220901505
18927931 339 18343025493232368421
20621476 66 9799695904324106280
21150785 3 18040441022966177260
21267235 1 18341338885429338001
2215653 11 15646772284827058208
22224240 67 15195286439041269325
23035841 295 18411138047976149331
23081809 10 18334867112607003940
23198884 109 16008745810272958021
23402539 116 18412826867376600989
23559900 14 18263077885026122033
3014965 18 15792004542530920504
4340502 62 15841549661854981684
445580 37 11097849662424854542
4463277 17 10015865383966846098
5104073 3 17131002961904541538
5283156 175 18409166593314966529
531348 171 17531516577780696941
59682541 52 14923931341820275624
59755656 520 17168139074581121099
6328613 192 8790882995287938862

> <PUBCHEM_SHAPE_MULTIPOLES>
381.12
23.74
1.81
1.16
19.83
0.56
0.22
12.33
0.1
-2.92
-0.39
0.96
0.05
-0.29

> <PUBCHEM_SHAPE_SELFOVERLAP>
730.118

> <PUBCHEM_SHAPE_VOLUME>
230.9

> <PUBCHEM_COORDINATE_TYPE>
2
5
10