519639
  -OEChem-05072106003D

 84 83  0     1  0  0  0  0  0999 V2000
    0.0557    3.0166    1.4414 Si  0  0  0  0  0  0  0  0  0  0  0  0
   -2.6815   -0.9745    2.4831 Si  0  0  0  0  0  0  0  0  0  0  0  0
    0.1441   -3.2828   -0.4988 Si  0  0  0  0  0  0  0  0  0  0  0  0
   -3.9606    0.9522   -2.8145 Si  0  0  0  0  0  0  0  0  0  0  0  0
    5.5976    0.5299   -0.9346 Si  0  0  0  0  0  0  0  0  0  0  0  0
    0.3836    1.6930    0.4675 O   0  0  0  0  0  0  0  0  0  0  0  0
   -2.3398   -0.7278    0.8626 O   0  0  0  0  0  0  0  0  0  0  0  0
   -0.0098   -1.9415    0.4957 O   0  0  0  0  0  0  0  0  0  0  0  0
   -3.3751    0.7476   -1.2577 O   0  0  0  0  0  0  0  0  0  0  0  0
    4.3496   -0.1809   -0.0607 O   0  0  0  0  0  0  0  0  0  0  0  0
    2.4877   -1.3902    1.4133 O   0  0  0  0  0  0  0  0  0  0  0  0
   -0.2057    0.4327    0.7743 C   0  0  1  0  0  0  0  0  0  0  0  0
   -1.7113    0.4871    0.4551 C   0  0  1  0  0  0  0  0  0  0  0  0
    0.5784   -0.7068    0.1056 C   0  0  1  0  0  0  0  0  0  0  0  0
   -1.9696    0.6731   -1.0402 C   0  0  0  0  0  0  0  0  0  0  0  0
    2.0683   -0.7637    0.4391 C   0  0  0  0  0  0  0  0  0  0  0  0
    1.3689    4.3489    1.2463 C   0  0  0  0  0  0  0  0  0  0  0  0
   -1.6215    3.7648    1.0341 C   0  0  0  0  0  0  0  0  0  0  0  0
    0.0316    2.4836    3.2485 C   0  0  0  0  0  0  0  0  0  0  0  0
    3.0139   -0.0426   -0.5023 C   0  0  0  0  0  0  0  0  0  0  0  0
   -3.3039    0.6307    3.2487 C   0  0  0  0  0  0  0  0  0  0  0  0
   -1.1487   -1.5140    3.4307 C   0  0  0  0  0  0  0  0  0  0  0  0
   -4.0157   -2.2810    2.7087 C   0  0  0  0  0  0  0  0  0  0  0  0
   -0.6285   -2.9723   -2.1855 C   0  0  0  0  0  0  0  0  0  0  0  0
    1.9509   -3.7456   -0.7439 C   0  0  0  0  0  0  0  0  0  0  0  0
   -0.7335   -4.7568    0.2807 C   0  0  0  0  0  0  0  0  0  0  0  0
   -3.3403    2.5590   -3.5706 C   0  0  0  0  0  0  0  0  0  0  0  0
   -3.4455   -0.4724   -3.9299 C   0  0  0  0  0  0  0  0  0  0  0  0
   -5.8435    1.0136   -2.7813 C   0  0  0  0  0  0  0  0  0  0  0  0
    7.2505    0.1729   -0.1035 C   0  0  0  0  0  0  0  0  0  0  0  0
    5.3840    2.3968   -1.0246 C   0  0  0  0  0  0  0  0  0  0  0  0
    5.6698   -0.1496   -2.6870 C   0  0  0  0  0  0  0  0  0  0  0  0
   -0.0607    0.2565    1.8381 H   0  0  0  0  0  0  0  0  0  0  0  0
   -2.2262    1.3090    0.9448 H   0  0  0  0  0  0  0  0  0  0  0  0
    0.5182   -0.5711   -0.9822 H   0  0  0  0  0  0  0  0  0  0  0  0
   -1.4832    1.5852   -1.4046 H   0  0  0  0  0  0  0  0  0  0  0  0
   -1.5832   -0.1857   -1.5985 H   0  0  0  0  0  0  0  0  0  0  0  0
    1.3977    4.7101    0.2142 H   0  0  0  0  0  0  0  0  0  0  0  0
    1.1590    5.1978    1.9034 H   0  0  0  0  0  0  0  0  0  0  0  0
    2.3569    3.9528    1.4992 H   0  0  0  0  0  0  0  0  0  0  0  0
   -1.8385    3.6813   -0.0345 H   0  0  0  0  0  0  0  0  0  0  0  0
   -2.4343    3.3051    1.6002 H   0  0  0  0  0  0  0  0  0  0  0  0
   -1.6196    4.8295    1.2899 H   0  0  0  0  0  0  0  0  0  0  0  0
    1.0406    2.1930    3.5580 H   0  0  0  0  0  0  0  0  0  0  0  0
   -0.2840    3.3198    3.8799 H   0  0  0  0  0  0  0  0  0  0  0  0
   -0.6251    1.6437    3.4512 H   0  0  0  0  0  0  0  0  0  0  0  0
    2.7295    1.0146   -0.5238 H   0  0  0  0  0  0  0  0  0  0  0  0
    2.8931   -0.4839   -1.4983 H   0  0  0  0  0  0  0  0  0  0  0  0
   -4.2598    0.9082    2.7929 H   0  0  0  0  0  0  0  0  0  0  0  0
   -3.4735    0.4897    4.3206 H   0  0  0  0  0  0  0  0  0  0  0  0
   -2.6273    1.4708    3.1261 H   0  0  0  0  0  0  0  0  0  0  0  0
   -0.6412   -2.3429    2.9328 H   0  0  0  0  0  0  0  0  0  0  0  0
   -0.4348   -0.7075    3.6005 H   0  0  0  0  0  0  0  0  0  0  0  0
   -1.4529   -1.8726    4.4201 H   0  0  0  0  0  0  0  0  0  0  0  0
   -3.6858   -3.2394    2.2971 H   0  0  0  0  0  0  0  0  0  0  0  0
   -4.2436   -2.4212    3.7694 H   0  0  0  0  0  0  0  0  0  0  0  0
   -4.9344   -1.9837    2.1946 H   0  0  0  0  0  0  0  0  0  0  0  0
   -0.1163   -2.1600   -2.7087 H   0  0  0  0  0  0  0  0  0  0  0  0
   -0.5647   -3.8708   -2.8065 H   0  0  0  0  0  0  0  0  0  0  0  0
   -1.6837   -2.7045   -2.0787 H   0  0  0  0  0  0  0  0  0  0  0  0
    2.4842   -2.9792   -1.3120 H   0  0  0  0  0  0  0  0  0  0  0  0
    2.4518   -3.8856    0.2180 H   0  0  0  0  0  0  0  0  0  0  0  0
    2.0248   -4.6843   -1.3018 H   0  0  0  0  0  0  0  0  0  0  0  0
   -1.7968   -4.5389    0.4180 H   0  0  0  0  0  0  0  0  0  0  0  0
   -0.6406   -5.6414   -0.3560 H   0  0  0  0  0  0  0  0  0  0  0  0
   -0.2998   -4.9863    1.2583 H   0  0  0  0  0  0  0  0  0  0  0  0
   -2.2513    2.5444   -3.6715 H   0  0  0  0  0  0  0  0  0  0  0  0
   -3.7743    2.7093   -4.5636 H   0  0  0  0  0  0  0  0  0  0  0  0
   -3.6164    3.4101   -2.9414 H   0  0  0  0  0  0  0  0  0  0  0  0
   -2.3571   -0.5109   -4.0314 H   0  0  0  0  0  0  0  0  0  0  0  0
   -3.7865   -1.4258   -3.5158 H   0  0  0  0  0  0  0  0  0  0  0  0
   -3.8786   -0.3556   -4.9276 H   0  0  0  0  0  0  0  0  0  0  0  0
   -6.1881    1.8460   -2.1610 H   0  0  0  0  0  0  0  0  0  0  0  0
   -6.2419    1.1468   -3.7913 H   0  0  0  0  0  0  0  0  0  0  0  0
   -6.2491    0.0850   -2.3691 H   0  0  0  0  0  0  0  0  0  0  0  0
    7.4275   -0.9054   -0.0515 H   0  0  0  0  0  0  0  0  0  0  0  0
    8.0702    0.6312   -0.6646 H   0  0  0  0  0  0  0  0  0  0  0  0
    7.2614    0.5740    0.9142 H   0  0  0  0  0  0  0  0  0  0  0  0
    4.4638    2.6560   -1.5563 H   0  0  0  0  0  0  0  0  0  0  0  0
    5.3330    2.8257   -0.0195 H   0  0  0  0  0  0  0  0  0  0  0  0
    6.2255    2.8550   -1.5526 H   0  0  0  0  0  0  0  0  0  0  0  0
    4.7521    0.0885   -3.2326 H   0  0  0  0  0  0  0  0  0  0  0  0
    6.5143    0.2821   -3.2322 H   0  0  0  0  0  0  0  0  0  0  0  0
    5.7892   -1.2369   -2.6718 H   0  0  0  0  0  0  0  0  0  0  0  0
  1  6  1  0  0  0  0
  1 17  1  0  0  0  0
  1 18  1  0  0  0  0
  1 19  1  0  0  0  0
  2  7  1  0  0  0  0
  2 21  1  0  0  0  0
  2 22  1  0  0  0  0
  2 23  1  0  0  0  0
  3  8  1  0  0  0  0
  3 24  1  0  0  0  0
  3 25  1  0  0  0  0
  3 26  1  0  0  0  0
  4  9  1  0  0  0  0
  4 27  1  0  0  0  0
  4 28  1  0  0  0  0
  4 29  1  0  0  0  0
  5 10  1  0  0  0  0
  5 30  1  0  0  0  0
  5 31  1  0  0  0  0
  5 32  1  0  0  0  0
  6 12  1  0  0  0  0
  7 13  1  0  0  0  0
  8 14  1  0  0  0  0
  9 15  1  0  0  0  0
 10 20  1  0  0  0  0
 11 16  2  0  0  0  0
 12 13  1  0  0  0  0
 12 14  1  0  0  0  0
 12 33  1  0  0  0  0
 13 15  1  0  0  0  0
 13 34  1  0  0  0  0
 14 16  1  0  0  0  0
 14 35  1  0  0  0  0
 15 36  1  0  0  0  0
 15 37  1  0  0  0  0
 16 20  1  0  0  0  0
 17 38  1  0  0  0  0
 17 39  1  0  0  0  0
 17 40  1  0  0  0  0
 18 41  1  0  0  0  0
 18 42  1  0  0  0  0
 18 43  1  0  0  0  0
 19 44  1  0  0  0  0
 19 45  1  0  0  0  0
 19 46  1  0  0  0  0
 20 47  1  0  0  0  0
 20 48  1  0  0  0  0
 21 49  1  0  0  0  0
 21 50  1  0  0  0  0
 21 51  1  0  0  0  0
 22 52  1  0  0  0  0
 22 53  1  0  0  0  0
 22 54  1  0  0  0  0
 23 55  1  0  0  0  0
 23 56  1  0  0  0  0
 23 57  1  0  0  0  0
 24 58  1  0  0  0  0
 24 59  1  0  0  0  0
 24 60  1  0  0  0  0
 25 61  1  0  0  0  0
 25 62  1  0  0  0  0
 25 63  1  0  0  0  0
 26 64  1  0  0  0  0
 26 65  1  0  0  0  0
 26 66  1  0  0  0  0
 27 67  1  0  0  0  0
 27 68  1  0  0  0  0
 27 69  1  0  0  0  0
 28 70  1  0  0  0  0
 28 71  1  0  0  0  0
 28 72  1  0  0  0  0
 29 73  1  0  0  0  0
 29 74  1  0  0  0  0
 29 75  1  0  0  0  0
 30 76  1  0  0  0  0
 30 77  1  0  0  0  0
 30 78  1  0  0  0  0
 31 79  1  0  0  0  0
 31 80  1  0  0  0  0
 31 81  1  0  0  0  0
 32 82  1  0  0  0  0
 32 83  1  0  0  0  0
 32 84  1  0  0  0  0
M  END
> <PUBCHEM_COMPOUND_CID>
519639

> <PUBCHEM_CONFORMER_RMSD>
1.2

> <PUBCHEM_CONFORMER_DIVERSEORDER>
2
16
11
4
13
10
1
3
14
9
8
6
7
12
15
5

> <PUBCHEM_MMFF94_PARTIAL_CHARGES>
32
1 0.54
10 -0.58
11 -0.57
12 0.28
13 0.28
14 0.34
15 0.28
16 0.45
17 -0.08
18 -0.08
19 -0.08
2 0.54
20 0.34
21 -0.08
22 -0.08
23 -0.08
24 -0.08
25 -0.08
26 -0.08
27 -0.08
28 -0.08
29 -0.08
3 0.54
30 -0.08
31 -0.08
32 -0.08
4 0.54
5 0.54
6 -0.58
7 -0.58
8 -0.58
9 -0.58

> <PUBCHEM_EFFECTIVE_ROTOR_COUNT>
15

> <PUBCHEM_PHARMACOPHORE_FEATURES>
1
1 11 acceptor

> <PUBCHEM_HEAVY_ATOM_COUNT>
32

> <PUBCHEM_ATOM_DEF_STEREO_COUNT>
0

> <PUBCHEM_ATOM_UDEF_STEREO_COUNT>
3

> <PUBCHEM_BOND_DEF_STEREO_COUNT>
0

> <PUBCHEM_BOND_UDEF_STEREO_COUNT>
0

> <PUBCHEM_ISOTOPIC_ATOM_COUNT>
0

> <PUBCHEM_COMPONENT_COUNT>
1

> <PUBCHEM_CACTVS_TAUTO_COUNT>
3

> <PUBCHEM_CONFORMER_ID>
0007EDD700000002

> <PUBCHEM_MMFF94_ENERGY>
48.8645

> <PUBCHEM_FEATURE_SELFOVERLAP>
5.074

> <PUBCHEM_SHAPE_FINGERPRINT>
10006869 2 17554075154779651681
10032420 55 17968650661108241059
1100329 8 17912106119813277762
11445158 3 18050312515195351617
11578080 2 16951421922473554574
12058002 1 17613415767144553970
13149001 5 18128238181246922356
13583140 156 17748828536109848250
13911987 19 18411702097219743676
14068700 675 17415847048227488703
14790565 3 18055667042607842520
14955137 171 17981921762476696794
15775530 1 17550084297106296940
17980427 23 14129357194717596766
18603816 31 15696057803569182518
23419403 2 18261955262622080913
23558518 356 17618789059004805114
23559900 14 17678162820682055666
2838139 119 17603852382989774964
3493558 16 16732991958767045165
550186 7 17312829281188600326
57527358 35 16588025697626462434
57527585 21 18268720415232388225

> <PUBCHEM_SHAPE_MULTIPOLES>
714.39
11.1
5.2
4.45
18.09
1.11
1.2
-3.06
9.05
-0.19
-1.46
-7.72
-1.02
2.22

> <PUBCHEM_SHAPE_SELFOVERLAP>
1278.224

> <PUBCHEM_SHAPE_VOLUME>
463.8

> <PUBCHEM_COORDINATE_TYPE>
2
5
10