5288047
  -OEChem-05072106003D

 26 26  0     1  0  0  0  0  0999 V2000
    0.1275   -1.0029   -0.2225 O   0  0  0  0  0  0  0  0  0  0  0  0
   -1.3625   -0.3118    1.4533 O   0  0  0  0  0  0  0  0  0  0  0  0
    1.6070    2.2400   -0.5690 O   0  0  0  0  0  0  0  0  0  0  0  0
   -2.5034   -1.9920   -0.3449 O   0  0  0  0  0  0  0  0  0  0  0  0
    2.7230   -2.0443    0.0056 O   0  0  0  0  0  0  0  0  0  0  0  0
   -0.5912    1.2540   -0.2863 C   0  0  2  0  0  0  0  0  0  0  0  0
   -1.0122   -0.1742    0.0778 C   0  0  1  0  0  0  0  0  0  0  0  0
    0.8770    1.2332    0.1058 C   0  0  1  0  0  0  0  0  0  0  0  0
    1.2911   -0.1637   -0.3415 C   0  0  1  0  0  0  0  0  0  0  0  0
   -1.3806    2.3752    0.3732 C   0  0  0  0  0  0  0  0  0  0  0  0
   -2.1958   -0.6670   -0.7422 C   0  0  0  0  0  0  0  0  0  0  0  0
    2.4201   -0.7466    0.4907 C   0  0  0  0  0  0  0  0  0  0  0  0
   -0.6524    1.3950   -1.3751 H   0  0  0  0  0  0  0  0  0  0  0  0
    1.0015    1.3712    1.1864 H   0  0  0  0  0  0  0  0  0  0  0  0
    1.5800   -0.1732   -1.4001 H   0  0  0  0  0  0  0  0  0  0  0  0
   -2.4416    2.3082    0.1133 H   0  0  0  0  0  0  0  0  0  0  0  0
   -1.2961    2.3525    1.4642 H   0  0  0  0  0  0  0  0  0  0  0  0
   -1.0138    3.3505    0.0361 H   0  0  0  0  0  0  0  0  0  0  0  0
   -1.9751   -0.6764   -1.8144 H   0  0  0  0  0  0  0  0  0  0  0  0
   -3.0864   -0.0568   -0.5648 H   0  0  0  0  0  0  0  0  0  0  0  0
    2.1209   -0.8467    1.5392 H   0  0  0  0  0  0  0  0  0  0  0  0
    3.3192   -0.1263    0.4273 H   0  0  0  0  0  0  0  0  0  0  0  0
   -0.7570    0.2320    1.9829 H   0  0  0  0  0  0  0  0  0  0  0  0
    2.5461    2.1173   -0.3494 H   0  0  0  0  0  0  0  0  0  0  0  0
   -1.7100   -2.5343   -0.4936 H   0  0  0  0  0  0  0  0  0  0  0  0
    3.4454   -2.3937    0.5547 H   0  0  0  0  0  0  0  0  0  0  0  0
  1  7  1  0  0  0  0
  1  9  1  0  0  0  0
  2  7  1  0  0  0  0
  2 23  1  0  0  0  0
  3  8  1  0  0  0  0
  3 24  1  0  0  0  0
  4 11  1  0  0  0  0
  4 25  1  0  0  0  0
  5 12  1  0  0  0  0
  5 26  1  0  0  0  0
  6  7  1  0  0  0  0
  6  8  1  0  0  0  0
  6 10  1  0  0  0  0
  6 13  1  0  0  0  0
  7 11  1  0  0  0  0
  8  9  1  0  0  0  0
  8 14  1  0  0  0  0
  9 12  1  0  0  0  0
  9 15  1  0  0  0  0
 10 16  1  0  0  0  0
 10 17  1  0  0  0  0
 10 18  1  0  0  0  0
 11 19  1  0  0  0  0
 11 20  1  0  0  0  0
 12 21  1  0  0  0  0
 12 22  1  0  0  0  0
M  END
> <PUBCHEM_COMPOUND_CID>
5288047

> <PUBCHEM_CONFORMER_RMSD>
0.6

> <PUBCHEM_CONFORMER_DIVERSEORDER>
1
8
6
4
2
7
5
3

> <PUBCHEM_MMFF94_PARTIAL_CHARGES>
14
1 -0.56
11 0.28
12 0.28
2 -0.68
23 0.4
24 0.4
25 0.4
26 0.4
3 -0.68
4 -0.68
5 -0.68
7 0.56
8 0.28
9 0.28

> <PUBCHEM_EFFECTIVE_ROTOR_COUNT>
3

> <PUBCHEM_PHARMACOPHORE_FEATURES>
10
1 1 acceptor
1 2 acceptor
1 2 donor
1 3 acceptor
1 3 donor
1 4 acceptor
1 4 donor
1 5 acceptor
1 5 donor
5 1 6 7 8 9 rings

> <PUBCHEM_HEAVY_ATOM_COUNT>
12

> <PUBCHEM_ATOM_DEF_STEREO_COUNT>
4

> <PUBCHEM_ATOM_UDEF_STEREO_COUNT>
0

> <PUBCHEM_BOND_DEF_STEREO_COUNT>
0

> <PUBCHEM_BOND_UDEF_STEREO_COUNT>
0

> <PUBCHEM_ISOTOPIC_ATOM_COUNT>
0

> <PUBCHEM_COMPONENT_COUNT>
1

> <PUBCHEM_CACTVS_TAUTO_COUNT>
1

> <PUBCHEM_CONFORMER_ID>
0050B06F00000001

> <PUBCHEM_MMFF94_ENERGY>
30.3352

> <PUBCHEM_FEATURE_SELFOVERLAP>
50.809

> <PUBCHEM_SHAPE_FINGERPRINT>
12423570 1 11879425361156482137
13024252 1 16300940891967759640
14128692 85 18341330071634382702
16945 1 18339924796968783573
18185500 45 18055071231373673063
193761 8 18410855455902234084
20645477 70 18192417796395883207
20871998 184 18051420569301680010
21040471 1 17908427943916950932
21501502 16 18410575084700424492
23552423 10 18335703891962131404
241688 4 18263915549524437384
2748010 2 18410847776442459348
29004967 10 18120651602665593057
369184 2 17702367460643656746
5084963 1 18131349713222637682
54338 74 18263629680706245690
68250623 7 18410577292429516277

> <PUBCHEM_SHAPE_MULTIPOLES>
217.61
3.36
2.45
0.86
1.31
0.69
0.18
-1.8
0
-0.43
-0.21
-0.22
-0.01
-0.43

> <PUBCHEM_SHAPE_SELFOVERLAP>
434.05

> <PUBCHEM_SHAPE_VOLUME>
129.5

> <PUBCHEM_COORDINATE_TYPE>
2
5
10