53356733
  -OEChem-05072106003D

 66 68  0     1  0  0  0  0  0999 V2000
    2.1778    0.7688   -0.4464 O   0  0  0  0  0  0  0  0  0  0  0  0
    0.4015   -0.2448    0.6957 O   0  0  0  0  0  0  0  0  0  0  0  0
    5.5436    1.1976    0.6423 O   0  0  0  0  0  0  0  0  0  0  0  0
   -2.3929   -0.0887   -0.3323 O   0  0  0  0  0  0  0  0  0  0  0  0
   -4.5782   -0.9657   -0.0575 O   0  0  0  0  0  0  0  0  0  0  0  0
   -0.2254   -2.3641   -2.1490 O   0  0  0  0  0  0  0  0  0  0  0  0
    4.1037   -1.5166   -1.2441 O   0  0  0  0  0  0  0  0  0  0  0  0
   -0.2343    1.2421   -1.7098 O   0  0  0  0  0  0  0  0  0  0  0  0
    5.8074   -1.1254    0.8572 O   0  0  0  0  0  0  0  0  0  0  0  0
   -3.3323    1.6280   -2.3436 O   0  0  0  0  0  0  0  0  0  0  0  0
   -5.5463    2.9330   -1.0130 O   0  0  0  0  0  0  0  0  0  0  0  0
   -5.8845    2.0081    1.6857 O   0  0  0  0  0  0  0  0  0  0  0  0
    4.5722    2.8357    2.7056 O   0  0  0  0  0  0  0  0  0  0  0  0
   -1.0197   -3.5672    1.2550 O   0  0  0  0  0  0  0  0  0  0  0  0
    8.0599    0.1439   -0.1699 O   0  0  0  0  0  0  0  0  0  0  0  0
   -5.1793   -2.1623    2.3214 O   0  0  0  0  0  0  0  0  0  0  0  0
    3.3733    0.3287    0.1705 C   0  0  1  0  0  0  0  0  0  0  0  0
   -1.5362   -1.2285   -0.4548 C   0  0  1  0  0  0  0  0  0  0  0  0
   -0.7924   -1.1077   -1.7911 C   0  0  1  0  0  0  0  0  0  0  0  0
    4.3730   -0.1884   -0.8419 C   0  0  1  0  0  0  0  0  0  0  0  0
    1.2011   -0.2700   -0.4849 C   0  0  1  0  0  0  0  0  0  0  0  0
    0.3303   -0.0696   -1.7269 C   0  0  2  0  0  0  0  0  0  0  0  0
    4.1396    1.5014    0.7717 C   0  0  1  0  0  0  0  0  0  0  0  0
   -0.6024   -1.2653    0.7673 C   0  0  1  0  0  0  0  0  0  0  0  0
    5.6808   -0.0460   -0.0698 C   0  0  1  0  0  0  0  0  0  0  0  0
   -3.6597   -0.3238   -0.9442 C   0  0  1  0  0  0  0  0  0  0  0  0
   -4.2775    0.9497   -1.5239 C   0  0  1  0  0  0  0  0  0  0  0  0
   -4.7624    1.8925   -0.4243 C   0  0  2  0  0  0  0  0  0  0  0  0
   -5.6385    1.1418    0.5805 C   0  0  1  0  0  0  0  0  0  0  0  0
   -4.9566   -0.1483    1.0560 C   0  0  1  0  0  0  0  0  0  0  0  0
    3.8070    1.7385    2.2347 C   0  0  0  0  0  0  0  0  0  0  0  0
    0.0211   -2.6361    1.0227 C   0  0  0  0  0  0  0  0  0  0  0  0
    6.9020    0.0003   -0.9747 C   0  0  0  0  0  0  0  0  0  0  0  0
   -5.8756   -0.9915    1.9358 C   0  0  0  0  0  0  0  0  0  0  0  0
    3.1615   -0.4268    0.9406 H   0  0  0  0  0  0  0  0  0  0  0  0
   -2.1484   -2.1396   -0.4419 H   0  0  0  0  0  0  0  0  0  0  0  0
   -1.4798   -0.8256   -2.5957 H   0  0  0  0  0  0  0  0  0  0  0  0
    4.3541    0.4504   -1.7344 H   0  0  0  0  0  0  0  0  0  0  0  0
    1.6963   -1.2430   -0.5669 H   0  0  0  0  0  0  0  0  0  0  0  0
    0.9681   -0.1309   -2.6171 H   0  0  0  0  0  0  0  0  0  0  0  0
    3.9663    2.4257    0.2066 H   0  0  0  0  0  0  0  0  0  0  0  0
   -1.2096   -1.0144    1.6471 H   0  0  0  0  0  0  0  0  0  0  0  0
   -3.5304   -1.0070   -1.7928 H   0  0  0  0  0  0  0  0  0  0  0  0
   -5.1327    0.6844   -2.1588 H   0  0  0  0  0  0  0  0  0  0  0  0
   -3.9177    2.3854    0.0708 H   0  0  0  0  0  0  0  0  0  0  0  0
   -6.6088    0.9120    0.1237 H   0  0  0  0  0  0  0  0  0  0  0  0
   -4.0549    0.0819    1.6392 H   0  0  0  0  0  0  0  0  0  0  0  0
    4.0704    0.8667    2.8426 H   0  0  0  0  0  0  0  0  0  0  0  0
    2.7442    1.9647    2.3653 H   0  0  0  0  0  0  0  0  0  0  0  0
    0.6702   -2.5968    1.9042 H   0  0  0  0  0  0  0  0  0  0  0  0
    0.6281   -2.9908    0.1866 H   0  0  0  0  0  0  0  0  0  0  0  0
    6.8568    0.8542   -1.6581 H   0  0  0  0  0  0  0  0  0  0  0  0
    7.0057   -0.9263   -1.5477 H   0  0  0  0  0  0  0  0  0  0  0  0
   -0.9528   -3.0060   -2.2151 H   0  0  0  0  0  0  0  0  0  0  0  0
    4.8195   -1.7944   -1.8401 H   0  0  0  0  0  0  0  0  0  0  0  0
   -0.7511    1.3496   -2.5263 H   0  0  0  0  0  0  0  0  0  0  0  0
    6.7451   -1.2007    1.1020 H   0  0  0  0  0  0  0  0  0  0  0  0
   -6.1781   -0.4467    2.8351 H   0  0  0  0  0  0  0  0  0  0  0  0
   -6.7684   -1.3011    1.3822 H   0  0  0  0  0  0  0  0  0  0  0  0
   -3.0639    1.0147   -3.0487 H   0  0  0  0  0  0  0  0  0  0  0  0
   -6.2997    2.5230   -1.4710 H   0  0  0  0  0  0  0  0  0  0  0  0
   -5.0336    2.1889    2.1204 H   0  0  0  0  0  0  0  0  0  0  0  0
    4.3407    2.9657    3.6410 H   0  0  0  0  0  0  0  0  0  0  0  0
   -0.6013   -4.4270    1.4317 H   0  0  0  0  0  0  0  0  0  0  0  0
    8.8247    0.1702   -0.7698 H   0  0  0  0  0  0  0  0  0  0  0  0
   -5.7822   -2.6850    2.8771 H   0  0  0  0  0  0  0  0  0  0  0  0
  1 17  1  0  0  0  0
  1 21  1  0  0  0  0
  2 21  1  0  0  0  0
  2 24  1  0  0  0  0
  3 23  1  0  0  0  0
  3 25  1  0  0  0  0
  4 18  1  0  0  0  0
  4 26  1  0  0  0  0
  5 26  1  0  0  0  0
  5 30  1  0  0  0  0
  6 19  1  0  0  0  0
  6 54  1  0  0  0  0
  7 20  1  0  0  0  0
  7 55  1  0  0  0  0
  8 22  1  0  0  0  0
  8 56  1  0  0  0  0
  9 25  1  0  0  0  0
  9 57  1  0  0  0  0
 10 27  1  0  0  0  0
 10 60  1  0  0  0  0
 11 28  1  0  0  0  0
 11 61  1  0  0  0  0
 12 29  1  0  0  0  0
 12 62  1  0  0  0  0
 13 31  1  0  0  0  0
 13 63  1  0  0  0  0
 14 32  1  0  0  0  0
 14 64  1  0  0  0  0
 15 33  1  0  0  0  0
 15 65  1  0  0  0  0
 16 34  1  0  0  0  0
 16 66  1  0  0  0  0
 17 20  1  0  0  0  0
 17 23  1  0  0  0  0
 17 35  1  0  0  0  0
 18 19  1  0  0  0  0
 18 24  1  0  0  0  0
 18 36  1  0  0  0  0
 19 22  1  0  0  0  0
 19 37  1  0  0  0  0
 20 25  1  0  0  0  0
 20 38  1  0  0  0  0
 21 22  1  0  0  0  0
 21 39  1  0  0  0  0
 22 40  1  0  0  0  0
 23 31  1  0  0  0  0
 23 41  1  0  0  0  0
 24 32  1  0  0  0  0
 24 42  1  0  0  0  0
 25 33  1  0  0  0  0
 26 27  1  0  0  0  0
 26 43  1  0  0  0  0
 27 28  1  0  0  0  0
 27 44  1  0  0  0  0
 28 29  1  0  0  0  0
 28 45  1  0  0  0  0
 29 30  1  0  0  0  0
 29 46  1  0  0  0  0
 30 34  1  0  0  0  0
 30 47  1  0  0  0  0
 31 48  1  0  0  0  0
 31 49  1  0  0  0  0
 32 50  1  0  0  0  0
 32 51  1  0  0  0  0
 33 52  1  0  0  0  0
 33 53  1  0  0  0  0
 34 58  1  0  0  0  0
 34 59  1  0  0  0  0
M  END
> <PUBCHEM_COMPOUND_CID>
53356733

> <PUBCHEM_CONFORMER_RMSD>
1.2

> <PUBCHEM_CONFORMER_DIVERSEORDER>
1
18
34
36
21
20
35
28
38
5
33
17
15
3
11
4
13
39
23
12
14
24
26
32
19
10
37
27
6
22
16
7
31
25
30
2
29
9
8

> <PUBCHEM_MMFF94_PARTIAL_CHARGES>
45
1 -0.56
10 -0.68
11 -0.68
12 -0.68
13 -0.68
14 -0.68
15 -0.68
16 -0.68
17 0.28
18 0.28
19 0.28
2 -0.56
20 0.28
21 0.56
22 0.28
23 0.28
24 0.28
25 0.56
26 0.56
27 0.28
28 0.28
29 0.28
3 -0.56
30 0.28
31 0.28
32 0.28
33 0.28
34 0.28
4 -0.56
5 -0.56
54 0.4
55 0.4
56 0.4
57 0.4
6 -0.68
60 0.4
61 0.4
62 0.4
63 0.4
64 0.4
65 0.4
66 0.4
7 -0.68
8 -0.68
9 -0.68

> <PUBCHEM_EFFECTIVE_ROTOR_COUNT>
11.4

> <PUBCHEM_PHARMACOPHORE_FEATURES>
30
1 1 acceptor
1 10 acceptor
1 10 donor
1 11 acceptor
1 11 donor
1 12 acceptor
1 12 donor
1 13 acceptor
1 13 donor
1 14 acceptor
1 14 donor
1 15 acceptor
1 15 donor
1 16 acceptor
1 16 donor
1 2 acceptor
1 3 acceptor
1 4 acceptor
1 5 acceptor
1 6 acceptor
1 6 donor
1 7 acceptor
1 7 donor
1 8 acceptor
1 8 donor
1 9 acceptor
1 9 donor
5 3 17 20 23 25 rings
6 2 18 19 21 22 24 rings
6 5 26 27 28 29 30 rings

> <PUBCHEM_HEAVY_ATOM_COUNT>
34

> <PUBCHEM_ATOM_DEF_STEREO_COUNT>
13

> <PUBCHEM_ATOM_UDEF_STEREO_COUNT>
1

> <PUBCHEM_BOND_DEF_STEREO_COUNT>
0

> <PUBCHEM_BOND_UDEF_STEREO_COUNT>
0

> <PUBCHEM_ISOTOPIC_ATOM_COUNT>
0

> <PUBCHEM_COMPONENT_COUNT>
1

> <PUBCHEM_CACTVS_TAUTO_COUNT>
1

> <PUBCHEM_CONFORMER_ID>
032E28BD00000001

> <PUBCHEM_MMFF94_ENERGY>
107.0085

> <PUBCHEM_FEATURE_SELFOVERLAP>
152.479

> <PUBCHEM_SHAPE_FINGERPRINT>
10319926 262 18187083966541113953
12236239 1 15626222433899471334
12422481 6 16951390057937034290
12596602 18 16877665677349314372
13544653 18 11386363716823695815
13690498 29 12031491182876021397
13914758 101 14404912366944155238
14856354 85 17168435921456494375
15183329 4 17418091009878189924
16992727 255 13973418902595340787
17913733 40 18337399253520720435
20511986 3 15769482193302033324
21033648 144 17560229357630928536
21033648 29 18336538387002111449
21756936 100 18408037420775212023
23522609 53 16226915262526828300
23559900 14 16845566548437373438
2838139 119 17418093217407335177
314194 84 13767929030895736445
3633792 109 15984552100897396110
4280585 95 11455884750389747135
4938544 92 15936682671785829109
5104073 3 17987223607862447322
57724786 102 17845650486322457248
7226269 152 18342740701960903416

> <PUBCHEM_SHAPE_MULTIPOLES>
605.8
17.86
2.7
2.23
11.56
0.35
-0.38
-6.96
-4.64
-1.91
-1.07
-1.16
-0.29
3.18

> <PUBCHEM_SHAPE_SELFOVERLAP>
1254.286

> <PUBCHEM_SHAPE_VOLUME>
340.7

> <PUBCHEM_COORDINATE_TYPE>
2
5
10