53389628
  -OEChem-05072106003D

 45 44  0     1  0  0  0  0  0999 V2000
   -2.4755    1.5498    0.5865 O   0  0  0  0  0  0  0  0  0  0  0  0
    1.0470   -1.5245    0.2579 O   0  0  0  0  0  0  0  0  0  0  0  0
   -3.3231   -0.7462    2.0972 O   0  0  0  0  0  0  0  0  0  0  0  0
   -5.0636   -0.5411   -0.9677 O   0  0  0  0  0  0  0  0  0  0  0  0
   -6.1891    1.9803   -1.3157 O   0  0  0  0  0  0  0  0  0  0  0  0
   -0.7156   -1.0915    2.2199 O   0  0  0  0  0  0  0  0  0  0  0  0
    1.6373   -1.8217   -1.9493 O   0  0  0  0  0  0  0  0  0  0  0  0
    4.2249   -2.2993   -1.2807 N   0  0  0  0  0  0  0  0  0  0  0  0
    5.2042    4.1059    0.4764 N   0  0  0  0  0  0  0  0  0  0  0  0
   -3.0305    0.3770   -0.0017 C   0  0  1  0  0  0  0  0  0  0  0  0
   -2.6784   -0.8624    0.8349 C   0  0  1  0  0  0  0  0  0  0  0  0
    3.8089   -0.7005    0.5663 C   0  0  0  0  0  0  0  0  0  0  0  0
   -4.5316    0.5876   -0.2748 C   0  0  1  0  0  0  0  0  0  0  0  0
    3.9391    0.5582   -0.3036 C   0  0  0  0  0  0  0  0  0  0  0  0
    3.3211   -1.9473   -0.1867 C   0  0  1  0  0  0  0  0  0  0  0  0
    4.4861    1.7356    0.5117 C   0  0  0  0  0  0  0  0  0  0  0  0
   -1.1874   -1.0870    1.0819 C   0  0  0  0  0  0  0  0  0  0  0  0
   -4.7852    1.8287   -1.1309 C   0  0  0  0  0  0  0  0  0  0  0  0
   -0.3169   -1.3392   -0.1343 C   0  0  0  0  0  0  0  0  0  0  0  0
    1.9273   -1.7602   -0.7614 C   0  0  0  0  0  0  0  0  0  0  0  0
    4.7010    2.9976   -0.3260 C   0  0  0  0  0  0  0  0  0  0  0  0
   -2.5426    0.2612   -0.9779 H   0  0  0  0  0  0  0  0  0  0  0  0
   -3.0667   -1.7695    0.3594 H   0  0  0  0  0  0  0  0  0  0  0  0
    4.7842   -0.9233    1.0191 H   0  0  0  0  0  0  0  0  0  0  0  0
    3.1277   -0.4854    1.3995 H   0  0  0  0  0  0  0  0  0  0  0  0
   -5.0810    0.6867    0.6688 H   0  0  0  0  0  0  0  0  0  0  0  0
    4.6133    0.3668   -1.1462 H   0  0  0  0  0  0  0  0  0  0  0  0
    2.9632    0.8299   -0.7223 H   0  0  0  0  0  0  0  0  0  0  0  0
    3.2802   -2.7976    0.5047 H   0  0  0  0  0  0  0  0  0  0  0  0
    5.4387    1.4433    0.9721 H   0  0  0  0  0  0  0  0  0  0  0  0
    3.7919    1.9565    1.3326 H   0  0  0  0  0  0  0  0  0  0  0  0
   -4.4036    2.7352   -0.6522 H   0  0  0  0  0  0  0  0  0  0  0  0
   -4.3305    1.7197   -2.1210 H   0  0  0  0  0  0  0  0  0  0  0  0
   -0.6798   -2.2420   -0.6362 H   0  0  0  0  0  0  0  0  0  0  0  0
   -0.3778   -0.4720   -0.7982 H   0  0  0  0  0  0  0  0  0  0  0  0
    5.4101    2.7893   -1.1350 H   0  0  0  0  0  0  0  0  0  0  0  0
    3.7548    3.2984   -0.7887 H   0  0  0  0  0  0  0  0  0  0  0  0
    5.1655   -2.4415   -0.9146 H   0  0  0  0  0  0  0  0  0  0  0  0
    3.9404   -3.1899   -1.6872 H   0  0  0  0  0  0  0  0  0  0  0  0
   -1.5098    1.4438    0.6137 H   0  0  0  0  0  0  0  0  0  0  0  0
   -3.0348    0.0902    2.5017 H   0  0  0  0  0  0  0  0  0  0  0  0
   -6.0078   -0.3689   -1.1247 H   0  0  0  0  0  0  0  0  0  0  0  0
    6.0981    3.8490    0.8931 H   0  0  0  0  0  0  0  0  0  0  0  0
    5.3893    4.9049   -0.1285 H   0  0  0  0  0  0  0  0  0  0  0  0
   -6.3199    2.7710   -1.8663 H   0  0  0  0  0  0  0  0  0  0  0  0
  1 10  1  0  0  0  0
  1 40  1  0  0  0  0
  2 19  1  0  0  0  0
  2 20  1  0  0  0  0
  3 11  1  0  0  0  0
  3 41  1  0  0  0  0
  4 13  1  0  0  0  0
  4 42  1  0  0  0  0
  5 18  1  0  0  0  0
  5 45  1  0  0  0  0
  6 17  2  0  0  0  0
  7 20  2  0  0  0  0
  8 15  1  0  0  0  0
  8 38  1  0  0  0  0
  8 39  1  0  0  0  0
  9 21  1  0  0  0  0
  9 43  1  0  0  0  0
  9 44  1  0  0  0  0
 10 11  1  0  0  0  0
 10 13  1  0  0  0  0
 10 22  1  0  0  0  0
 11 17  1  0  0  0  0
 11 23  1  0  0  0  0
 12 14  1  0  0  0  0
 12 15  1  0  0  0  0
 12 24  1  0  0  0  0
 12 25  1  0  0  0  0
 13 18  1  0  0  0  0
 13 26  1  0  0  0  0
 14 16  1  0  0  0  0
 14 27  1  0  0  0  0
 14 28  1  0  0  0  0
 15 20  1  0  0  0  0
 15 29  1  0  0  0  0
 16 21  1  0  0  0  0
 16 30  1  0  0  0  0
 16 31  1  0  0  0  0
 17 19  1  0  0  0  0
 18 32  1  0  0  0  0
 18 33  1  0  0  0  0
 19 34  1  0  0  0  0
 19 35  1  0  0  0  0
 21 36  1  0  0  0  0
 21 37  1  0  0  0  0
M  END
> <PUBCHEM_COMPOUND_CID>
53389628

> <PUBCHEM_CONFORMER_RMSD>
1.2

> <PUBCHEM_CONFORMER_DIVERSEORDER>
1
104
122
94
29
47
22
45
128
125
111
116
96
63
127
61
31
109
95
68
70
62
55
54
17
106
98
30
6
80
43
88
44
102
51
65
118
13
101
60
67
27
58
66
113
5
42
26
78
14
34
115
2
114
52
75
84
64
39
20
97
72
79
18
90
103
124
7
92
33
100
74
119
59
93
16
91
120
126
35
69
50
107
85
87
49
129
77
53
73
123
56
83
37
40
110
121
86
99
24
21
23
76
38
112
105
82
32
117
11
19
25
89
48
15
71
28
57
10
4
81
36
108
46
41
9
3
12
8

> <PUBCHEM_MMFF94_PARTIAL_CHARGES>
26
1 -0.68
10 0.28
11 0.34
13 0.28
15 0.33
17 0.45
18 0.28
19 0.34
2 -0.43
20 0.66
21 0.27
3 -0.68
38 0.36
39 0.36
4 -0.68
40 0.4
41 0.4
42 0.4
43 0.36
44 0.36
45 0.4
5 -0.68
6 -0.57
7 -0.57
8 -0.99
9 -0.99

> <PUBCHEM_EFFECTIVE_ROTOR_COUNT>
12

> <PUBCHEM_PHARMACOPHORE_FEATURES>
14
1 1 acceptor
1 1 donor
1 3 acceptor
1 3 donor
1 4 acceptor
1 4 donor
1 5 acceptor
1 5 donor
1 6 acceptor
1 7 acceptor
1 8 cation
1 8 donor
1 9 cation
1 9 donor

> <PUBCHEM_HEAVY_ATOM_COUNT>
21

> <PUBCHEM_ATOM_DEF_STEREO_COUNT>
4

> <PUBCHEM_ATOM_UDEF_STEREO_COUNT>
0

> <PUBCHEM_BOND_DEF_STEREO_COUNT>
0

> <PUBCHEM_BOND_UDEF_STEREO_COUNT>
0

> <PUBCHEM_ISOTOPIC_ATOM_COUNT>
0

> <PUBCHEM_COMPONENT_COUNT>
1

> <PUBCHEM_CACTVS_TAUTO_COUNT>
10

> <PUBCHEM_CONFORMER_ID>
032EA93C00000001

> <PUBCHEM_MMFF94_ENERGY>
18.3002

> <PUBCHEM_FEATURE_SELFOVERLAP>
71.075

> <PUBCHEM_SHAPE_FINGERPRINT>
10498660 4 18129108994978477232
10730089 43 18114464560911290028
10763959 59 18408889542835169956
11089746 13 18187358788397497458
12403259 415 18187098238332485619
12596602 18 13696458528738037397
12633257 1 16226602035157675260
12769317 202 18200597011991918808
13583140 156 18334585598548664226
13911852 28 8862942775574659001
14251751 18 11743570842974868268
14251764 30 10015590531429240597
14251764 38 18339080389224269776
14420673 8 9438868091337628605
14739800 52 17749936770515665361
14774955 27 18341613771688904680
15342816 4 14548728461502331274
16120349 189 18123463045809853876
1813 80 13542452164429538859
193927 3 13254499990737325655
21033648 29 17894639157560731298
212916 134 16805605850054668355
21388113 180 18337391664176682740
21475661 188 18187362155873143700
23559900 14 18337675196395164610
2838139 119 18336819870737353716
2916195 48 18113897161287152441
328310 1195 18341323422851181972
33382 64 9511456753802213382
341906 21 17530973492072274434
3459 39 16660914466657454597
345986 75 13045933591246007550
3472631 163 18261664901083461373
34797466 226 18343019969988958527
351380 180 18336262327989599802
60123966 16 18342457007060718020
88748 71 9222971269778935120

> <PUBCHEM_SHAPE_MULTIPOLES>
381.12
13.71
3.49
1.53
5.52
3.3
-0.29
11.64
3.35
-5.96
0.5
0.99
-0.63
2.75

> <PUBCHEM_SHAPE_SELFOVERLAP>
730.465

> <PUBCHEM_SHAPE_VOLUME>
231.1

> <PUBCHEM_COORDINATE_TYPE>
2
5
10