53878077
  -OEChem-05072106003D

 23 22  0     1  0  0  0  0  0999 V2000
   -0.3299   -1.9305   -0.1095 F   0  0  0  0  0  0  0  0  0  0  0  0
    0.2778    0.4196   -1.5672 O   0  0  0  0  0  0  0  0  0  0  0  0
    2.1104   -0.2292    1.5471 O   0  0  0  0  0  0  0  0  0  0  0  0
    4.2586    0.3478   -0.1360 O   0  0  0  0  0  0  0  0  0  0  0  0
   -2.7768   -0.9973   -0.5785 O   0  0  0  0  0  0  0  0  0  0  0  0
   -3.7935    1.3421    0.2358 O   0  0  0  0  0  0  0  0  0  0  0  0
    0.4599    0.2910   -0.1564 C   0  0  2  0  0  0  0  0  0  0  0  0
    1.9075   -0.1468    0.1390 C   0  0  1  0  0  0  0  0  0  0  0  0
   -0.5867   -0.6882    0.3874 C   0  0  1  0  0  0  0  0  0  0  0  0
    2.9517    0.8050   -0.4437 C   0  0  0  0  0  0  0  0  0  0  0  0
   -2.0131   -0.2725    0.0582 C   0  0  0  0  0  0  0  0  0  0  0  0
   -2.4657    1.0589    0.6237 C   0  0  0  0  0  0  0  0  0  0  0  0
    0.2993    1.2800    0.2857 H   0  0  0  0  0  0  0  0  0  0  0  0
    2.0849   -1.1483   -0.2721 H   0  0  0  0  0  0  0  0  0  0  0  0
   -0.5128   -0.7678    1.4772 H   0  0  0  0  0  0  0  0  0  0  0  0
    2.8415    1.8041   -0.0088 H   0  0  0  0  0  0  0  0  0  0  0  0
    2.8591    0.8772   -1.5316 H   0  0  0  0  0  0  0  0  0  0  0  0
    0.4187   -0.4574   -1.9632 H   0  0  0  0  0  0  0  0  0  0  0  0
   -1.8295    1.8605    0.2435 H   0  0  0  0  0  0  0  0  0  0  0  0
   -2.4148    1.0172    1.7152 H   0  0  0  0  0  0  0  0  0  0  0  0
    3.0293   -0.5112    1.6948 H   0  0  0  0  0  0  0  0  0  0  0  0
    4.8835    0.9860   -0.5205 H   0  0  0  0  0  0  0  0  0  0  0  0
   -4.0407    2.1865    0.6498 H   0  0  0  0  0  0  0  0  0  0  0  0
  1  9  1  0  0  0  0
  2  7  1  0  0  0  0
  2 18  1  0  0  0  0
  3  8  1  0  0  0  0
  3 21  1  0  0  0  0
  4 10  1  0  0  0  0
  4 22  1  0  0  0  0
  5 11  2  0  0  0  0
  6 12  1  0  0  0  0
  6 23  1  0  0  0  0
  7  8  1  0  0  0  0
  7  9  1  0  0  0  0
  7 13  1  0  0  0  0
  8 10  1  0  0  0  0
  8 14  1  0  0  0  0
  9 11  1  0  0  0  0
  9 15  1  0  0  0  0
 10 16  1  0  0  0  0
 10 17  1  0  0  0  0
 11 12  1  0  0  0  0
 12 19  1  0  0  0  0
 12 20  1  0  0  0  0
M  END
> <PUBCHEM_COMPOUND_CID>
53878077

> <PUBCHEM_CONFORMER_RMSD>
0.8

> <PUBCHEM_CONFORMER_DIVERSEORDER>
1
15
24
58
49
5
64
23
67
21
70
4
82
72
29
26
52
9
2
84
74
14
81
12
3
51
28
35
60
17
50
32
38
54
76
20
18
69
79
45
43
75
80
48
13
39
8
33
6
86
78
34
83
73
59
16
7
77
63
66
56
57
55
37
53
47
27
85
36
71
68
11
41
22
46
25
10
61
65
30
62
19
40
44
42
31

> <PUBCHEM_MMFF94_PARTIAL_CHARGES>
16
1 -0.34
10 0.28
11 0.45
12 0.34
18 0.4
2 -0.68
21 0.4
22 0.4
23 0.4
3 -0.68
4 -0.68
5 -0.57
6 -0.68
7 0.28
8 0.28
9 0.4

> <PUBCHEM_EFFECTIVE_ROTOR_COUNT>
5

> <PUBCHEM_PHARMACOPHORE_FEATURES>
9
1 2 acceptor
1 2 donor
1 3 acceptor
1 3 donor
1 4 acceptor
1 4 donor
1 5 acceptor
1 6 acceptor
1 6 donor

> <PUBCHEM_HEAVY_ATOM_COUNT>
12

> <PUBCHEM_ATOM_DEF_STEREO_COUNT>
3

> <PUBCHEM_ATOM_UDEF_STEREO_COUNT>
0

> <PUBCHEM_BOND_DEF_STEREO_COUNT>
0

> <PUBCHEM_BOND_UDEF_STEREO_COUNT>
0

> <PUBCHEM_ISOTOPIC_ATOM_COUNT>
0

> <PUBCHEM_COMPONENT_COUNT>
1

> <PUBCHEM_CACTVS_TAUTO_COUNT>
4

> <PUBCHEM_CONFORMER_ID>
03361D3D00000001

> <PUBCHEM_MMFF94_ENERGY>
15.8816

> <PUBCHEM_FEATURE_SELFOVERLAP>
45.691

> <PUBCHEM_SHAPE_FINGERPRINT>
10219947 1 17603585201373742711
12138202 97 17632579353110511655
12251169 10 16950578687560307561
124424 183 17203613662104765040
12897270 3 15626224598125261761
12932764 1 17603576443972440452
13839132 238 17916598526734749157
14325111 11 18412829079236798386
14993402 34 18114175380093252879
15775835 57 18335141972948755553
20645477 70 16226585425854698571
20653085 51 16917063395122425001
20711983 171 18342177760697448516
21061003 4 15213300854540638180
21119208 17 13686297941996918185
21256008 23 16660372484444325332
21293036 1 14836404726864356680
23402539 116 18130500929349009159
29004967 10 15574711408864306316
305870 269 18337113350163545827
5084963 1 17417816204764066114
57812782 119 16343703235650021008

> <PUBCHEM_SHAPE_MULTIPOLES>
210.33
5.96
1.25
1.01
1.53
0.25
-0.01
-2.1
-0.25
-0.82
0.01
0.28
-0.04
-0.51

> <PUBCHEM_SHAPE_SELFOVERLAP>
400.954

> <PUBCHEM_SHAPE_VOLUME>
128.5

> <PUBCHEM_COORDINATE_TYPE>
2
5
10