54118801
  -OEChem-05072106003D

 45 45  0     1  0  0  0  0  0999 V2000
   -2.3538   -0.8234   -0.4305 O   0  0  0  0  0  0  0  0  0  0  0  0
   -0.7830    0.9002   -0.5341 O   0  0  0  0  0  0  0  0  0  0  0  0
   -5.1994    1.7601    1.1042 O   0  0  0  0  0  0  0  0  0  0  0  0
   -5.0953   -0.1696   -0.8945 O   0  0  0  0  0  0  0  0  0  0  0  0
   -2.3912    2.4412    1.2287 O   0  0  0  0  0  0  0  0  0  0  0  0
   -2.8459   -3.7253   -0.1768 O   0  0  0  0  0  0  0  0  0  0  0  0
    3.7522    0.8629   -2.0778 O   0  0  0  0  0  0  0  0  0  0  0  0
    3.6750    1.5256    0.7198 O   0  0  0  0  0  0  0  0  0  0  0  0
    4.8596   -1.8502   -0.1086 O   0  0  0  0  0  0  0  0  0  0  0  0
    1.2987    1.8069   -1.9288 O   0  0  0  0  0  0  0  0  0  0  0  0
    6.8430   -1.0529    1.6734 O   0  0  0  0  0  0  0  0  0  0  0  0
   -4.1494    0.7968    1.1097 C   0  0  1  0  0  0  0  0  0  0  0  0
   -4.6062   -0.4841    0.4108 C   0  0  2  0  0  0  0  0  0  0  0  0
   -2.9201    1.3893    0.4216 C   0  0  2  0  0  0  0  0  0  0  0  0
   -3.4260   -1.4533    0.2817 C   0  0  1  0  0  0  0  0  0  0  0  0
   -1.8356    0.3250    0.2394 C   0  0  1  0  0  0  0  0  0  0  0  0
   -3.7965   -2.7201   -0.4807 C   0  0  0  0  0  0  0  0  0  0  0  0
    0.4299    0.1907   -0.3813 C   0  0  0  0  0  0  0  0  0  0  0  0
    2.9077    0.1819   -1.1584 C   0  0  1  0  0  0  0  0  0  0  0  0
    3.5867    0.1945    0.2196 C   0  0  1  0  0  0  0  0  0  0  0  0
    1.5244    0.8282   -1.2155 C   0  0  0  0  0  0  0  0  0  0  0  0
    4.9686   -0.4823    0.2837 C   0  0  1  0  0  0  0  0  0  0  0  0
    5.5568   -0.4420    1.6943 C   0  0  0  0  0  0  0  0  0  0  0  0
   -3.9167    0.5854    2.1610 H   0  0  0  0  0  0  0  0  0  0  0  0
   -5.4355   -0.9348    0.9680 H   0  0  0  0  0  0  0  0  0  0  0  0
   -3.1942    1.8372   -0.5406 H   0  0  0  0  0  0  0  0  0  0  0  0
   -3.0571   -1.7278    1.2791 H   0  0  0  0  0  0  0  0  0  0  0  0
   -1.4397    0.0293    1.2212 H   0  0  0  0  0  0  0  0  0  0  0  0
   -3.7888   -2.5600   -1.5638 H   0  0  0  0  0  0  0  0  0  0  0  0
   -4.7783   -3.0920   -0.1712 H   0  0  0  0  0  0  0  0  0  0  0  0
   -5.9699    1.3551    1.5377 H   0  0  0  0  0  0  0  0  0  0  0  0
   -5.5402   -0.9601   -1.2437 H   0  0  0  0  0  0  0  0  0  0  0  0
   -2.1404    2.0647    2.0895 H   0  0  0  0  0  0  0  0  0  0  0  0
    0.3068   -0.8453   -0.7138 H   0  0  0  0  0  0  0  0  0  0  0  0
    0.7362    0.2188    0.6686 H   0  0  0  0  0  0  0  0  0  0  0  0
    2.7992   -0.8450   -1.5235 H   0  0  0  0  0  0  0  0  0  0  0  0
    2.9327   -0.3520    0.9110 H   0  0  0  0  0  0  0  0  0  0  0  0
    5.6654    0.0064   -0.4075 H   0  0  0  0  0  0  0  0  0  0  0  0
   -3.1042   -4.5231   -0.6691 H   0  0  0  0  0  0  0  0  0  0  0  0
    5.6716    0.5841    2.0556 H   0  0  0  0  0  0  0  0  0  0  0  0
    4.9326   -1.0077    2.3939 H   0  0  0  0  0  0  0  0  0  0  0  0
    3.9089    1.7577   -1.7301 H   0  0  0  0  0  0  0  0  0  0  0  0
    2.7721    1.8756    0.8029 H   0  0  0  0  0  0  0  0  0  0  0  0
    5.7478   -2.2421   -0.0513 H   0  0  0  0  0  0  0  0  0  0  0  0
    7.1892   -1.0185    2.5814 H   0  0  0  0  0  0  0  0  0  0  0  0
  1 15  1  0  0  0  0
  1 16  1  0  0  0  0
  2 16  1  0  0  0  0
  2 18  1  0  0  0  0
  3 12  1  0  0  0  0
  3 31  1  0  0  0  0
  4 13  1  0  0  0  0
  4 32  1  0  0  0  0
  5 14  1  0  0  0  0
  5 33  1  0  0  0  0
  6 17  1  0  0  0  0
  6 39  1  0  0  0  0
  7 19  1  0  0  0  0
  7 42  1  0  0  0  0
  8 20  1  0  0  0  0
  8 43  1  0  0  0  0
  9 22  1  0  0  0  0
  9 44  1  0  0  0  0
 10 21  2  0  0  0  0
 11 23  1  0  0  0  0
 11 45  1  0  0  0  0
 12 13  1  0  0  0  0
 12 14  1  0  0  0  0
 12 24  1  0  0  0  0
 13 15  1  0  0  0  0
 13 25  1  0  0  0  0
 14 16  1  0  0  0  0
 14 26  1  0  0  0  0
 15 17  1  0  0  0  0
 15 27  1  0  0  0  0
 16 28  1  0  0  0  0
 17 29  1  0  0  0  0
 17 30  1  0  0  0  0
 18 21  1  0  0  0  0
 18 34  1  0  0  0  0
 18 35  1  0  0  0  0
 19 20  1  0  0  0  0
 19 21  1  0  0  0  0
 19 36  1  0  0  0  0
 20 22  1  0  0  0  0
 20 37  1  0  0  0  0
 22 23  1  0  0  0  0
 22 38  1  0  0  0  0
 23 40  1  0  0  0  0
 23 41  1  0  0  0  0
M  END
> <PUBCHEM_COMPOUND_CID>
54118801

> <PUBCHEM_CONFORMER_RMSD>
1

> <PUBCHEM_CONFORMER_DIVERSEORDER>
1
29
94
64
44
79
102
21
70
8
23
65
107
68
56
82
16
54
47
59
69
113
77
2
40
103
86
84
66
112
49
14
98
30
76
17
81
60
72
11
116
88
92
34
106
24
71
10
3
36
35
22
58
32
37
15
43
89
99
31
13
20
25
38
115
61
97
42
26
52
9
33
93
5
101
78
108
18
53
12
62
109
48
110
73
51
80
104
6
4
50
100
28
55
19
7
75
91
41
96
46
114
111
87
27
57
85
83
95
63
67
74
105
45
39
90

> <PUBCHEM_MMFF94_PARTIAL_CHARGES>
31
1 -0.56
10 -0.57
11 -0.68
12 0.28
13 0.28
14 0.28
15 0.28
16 0.56
17 0.28
18 0.34
19 0.34
2 -0.56
20 0.28
21 0.45
22 0.28
23 0.28
3 -0.68
31 0.4
32 0.4
33 0.4
39 0.4
4 -0.68
42 0.4
43 0.4
44 0.4
45 0.4
5 -0.68
6 -0.68
7 -0.68
8 -0.68
9 -0.68

> <PUBCHEM_EFFECTIVE_ROTOR_COUNT>
9.2

> <PUBCHEM_PHARMACOPHORE_FEATURES>
20
1 1 acceptor
1 10 acceptor
1 11 acceptor
1 11 donor
1 2 acceptor
1 3 acceptor
1 3 donor
1 4 acceptor
1 4 donor
1 5 acceptor
1 5 donor
1 6 acceptor
1 6 donor
1 7 acceptor
1 7 donor
1 8 acceptor
1 8 donor
1 9 acceptor
1 9 donor
6 1 12 13 14 15 16 rings

> <PUBCHEM_HEAVY_ATOM_COUNT>
23

> <PUBCHEM_ATOM_DEF_STEREO_COUNT>
8

> <PUBCHEM_ATOM_UDEF_STEREO_COUNT>
0

> <PUBCHEM_BOND_DEF_STEREO_COUNT>
0

> <PUBCHEM_BOND_UDEF_STEREO_COUNT>
0

> <PUBCHEM_ISOTOPIC_ATOM_COUNT>
0

> <PUBCHEM_COMPONENT_COUNT>
1

> <PUBCHEM_CACTVS_TAUTO_COUNT>
10

> <PUBCHEM_CONFORMER_ID>
0339C99100000001

> <PUBCHEM_MMFF94_ENERGY>
51.3586

> <PUBCHEM_FEATURE_SELFOVERLAP>
101.614

> <PUBCHEM_SHAPE_FINGERPRINT>
10 15 17274530006418354442
10319926 262 18059861640817759166
10912923 1 18261965140477142716
11405975 8 18343024414568011745
12236239 1 18114184141889859561
12523318 42 18131067173083826091
12596602 18 18342450457425612752
12616971 3 17821731641182258054
13167823 11 18260272970469846270
13583140 156 17418363701889497010
13914758 101 18187639155842202213
14178342 30 18341056241630880846
14251751 18 18341046406414508858
14341114 176 18201443554087544560
14844126 61 18270678796393567099
15183329 4 10881395422740673480
15188451 53 18340196487967997303
15250474 111 18408884078993730222
15348495 7 18131344228997644818
15788980 27 17457782301514298781
17349148 13 18186527621756601383
17780758 139 18411693288220707434
17857418 61 18261107482963742058
1813 80 17386014927460196774
19489759 90 18060700576790249297
20554085 129 17845365545565030281
20645477 70 16009032821599812540
21033648 29 16845299327845188344
21728266 224 18342174513966118335
21859007 373 18044653088456017429
22061861 79 14996003237914584994
22646028 1 18261119590328902109
23175994 123 15357701915940422461
23402539 116 18273214175749112285
23557571 272 17559979678270879485
23559900 14 17773620263730915796
23596394 208 13767922438453356760
2838139 119 13539969360280003755
312425 54 18272650100445772290
314194 84 17240481382686064842
351380 3 17531245041775157874
46194498 28 12540996109079518206
5104073 3 18339367473243185504
5364581 5 17845076549536517520
559249 180 18186515489059650083
573450 72 18410296929944007935
5924683 9 18201434826661530775
67856867 119 18264492965170779076
7064713 232 18413670205906762902
90127 26 15553903104021911240

> <PUBCHEM_SHAPE_MULTIPOLES>
408.77
14.63
2.52
1.52
12.41
1.84
0.2
4.03
-5.88
-3.16
-0.02
1.79
-0.53
-2.2

> <PUBCHEM_SHAPE_SELFOVERLAP>
815.198

> <PUBCHEM_SHAPE_VOLUME>
237.7

> <PUBCHEM_COORDINATE_TYPE>
2
5
10