54245579
  -OEChem-05072106003D

 36 35  0     1  0  0  0  0  0999 V2000
    0.3860    1.0187    1.5042 O   0  0  0  0  0  0  0  0  0  0  0  0
   -0.4325   -2.2544    0.1035 O   0  0  0  0  0  0  0  0  0  0  0  0
    1.9088   -1.3804   -0.8219 O   0  0  0  0  0  0  0  0  0  0  0  0
    3.7225    0.7211   -1.0204 O   0  0  0  0  0  0  0  0  0  0  0  0
   -1.4769   -0.4705   -1.6598 O   0  0  0  0  0  0  0  0  0  0  0  0
   -3.3576    1.2996   -1.0032 O   0  0  0  0  0  0  0  0  0  0  0  0
    0.6175   -0.2504    0.8999 C   0  0  2  0  0  0  0  0  0  0  0  0
    1.5861   -0.0970   -0.2874 C   0  0  1  0  0  0  0  0  0  0  0  0
   -0.7153   -0.9448    0.5803 C   0  0  1  0  0  0  0  0  0  0  0  0
    2.8914    0.5825    0.1276 C   0  0  0  0  0  0  0  0  0  0  0  0
   -1.5915   -0.2412   -0.4548 C   0  0  0  0  0  0  0  0  0  0  0  0
   -2.6343    0.7281    0.0684 C   0  0  0  0  0  0  0  0  0  0  0  0
   -0.0018    0.8827    2.8633 C   0  0  0  0  0  0  0  0  0  0  0  0
   -1.5186   -3.1399    0.3380 C   0  0  0  0  0  0  0  0  0  0  0  0
    4.9630    1.3298   -0.6926 C   0  0  0  0  0  0  0  0  0  0  0  0
   -4.3467    2.2161   -0.5452 C   0  0  0  0  0  0  0  0  0  0  0  0
    1.1431   -0.9011    1.6159 H   0  0  0  0  0  0  0  0  0  0  0  0
    1.1201    0.4893   -1.0878 H   0  0  0  0  0  0  0  0  0  0  0  0
   -1.3092   -1.0309    1.4971 H   0  0  0  0  0  0  0  0  0  0  0  0
    2.6974    1.5735    0.5524 H   0  0  0  0  0  0  0  0  0  0  0  0
    3.4154   -0.0330    0.8689 H   0  0  0  0  0  0  0  0  0  0  0  0
   -3.3160    0.1759    0.7239 H   0  0  0  0  0  0  0  0  0  0  0  0
   -2.1255    1.5171    0.6302 H   0  0  0  0  0  0  0  0  0  0  0  0
    2.5240   -1.2420   -1.5622 H   0  0  0  0  0  0  0  0  0  0  0  0
   -0.0263    1.8841    3.3036 H   0  0  0  0  0  0  0  0  0  0  0  0
    0.7224    0.2867    3.4277 H   0  0  0  0  0  0  0  0  0  0  0  0
   -1.0044    0.4599    2.9590 H   0  0  0  0  0  0  0  0  0  0  0  0
   -1.6934   -3.2591    1.4120 H   0  0  0  0  0  0  0  0  0  0  0  0
   -2.4308   -2.7943   -0.1575 H   0  0  0  0  0  0  0  0  0  0  0  0
   -1.2544   -4.1175   -0.0748 H   0  0  0  0  0  0  0  0  0  0  0  0
    5.5576    1.4133   -1.6063 H   0  0  0  0  0  0  0  0  0  0  0  0
    5.5140    0.7162    0.0267 H   0  0  0  0  0  0  0  0  0  0  0  0
    4.8034    2.3338   -0.2876 H   0  0  0  0  0  0  0  0  0  0  0  0
   -4.8692    2.6211   -1.4159 H   0  0  0  0  0  0  0  0  0  0  0  0
   -3.8791    3.0424   -0.0012 H   0  0  0  0  0  0  0  0  0  0  0  0
   -5.0735    1.7059    0.0941 H   0  0  0  0  0  0  0  0  0  0  0  0
  1  7  1  0  0  0  0
  1 13  1  0  0  0  0
  2  9  1  0  0  0  0
  2 14  1  0  0  0  0
  3  8  1  0  0  0  0
  3 24  1  0  0  0  0
  4 10  1  0  0  0  0
  4 15  1  0  0  0  0
  5 11  2  0  0  0  0
  6 12  1  0  0  0  0
  6 16  1  0  0  0  0
  7  8  1  0  0  0  0
  7  9  1  0  0  0  0
  7 17  1  0  0  0  0
  8 10  1  0  0  0  0
  8 18  1  0  0  0  0
  9 11  1  0  0  0  0
  9 19  1  0  0  0  0
 10 20  1  0  0  0  0
 10 21  1  0  0  0  0
 11 12  1  0  0  0  0
 12 22  1  0  0  0  0
 12 23  1  0  0  0  0
 13 25  1  0  0  0  0
 13 26  1  0  0  0  0
 13 27  1  0  0  0  0
 14 28  1  0  0  0  0
 14 29  1  0  0  0  0
 14 30  1  0  0  0  0
 15 31  1  0  0  0  0
 15 32  1  0  0  0  0
 15 33  1  0  0  0  0
 16 34  1  0  0  0  0
 16 35  1  0  0  0  0
 16 36  1  0  0  0  0
M  END
> <PUBCHEM_COMPOUND_CID>
54245579

> <PUBCHEM_CONFORMER_RMSD>
0.8

> <PUBCHEM_CONFORMER_DIVERSEORDER>
1
5
67
90
21
84
28
65
45
38
58
63
14
75
72
17
55
24
25
13
40
59
49
76
53
74
81
62
66
20
87
78
27
50
68
80
12
7
30
91
71
52
11
34
22
83
89
9
85
16
41
57
82
47
77
39
69
33
60
32
43
18
48
56
73
88
15
23
42
35
3
10
54
19
70
31
37
79
2
86
29
8
64
61
26
46
36
51
4
44
6

> <PUBCHEM_MMFF94_PARTIAL_CHARGES>
17
1 -0.56
10 0.28
11 0.45
12 0.34
13 0.28
14 0.28
15 0.28
16 0.28
2 -0.56
24 0.4
3 -0.68
4 -0.56
5 -0.57
6 -0.56
7 0.28
8 0.28
9 0.34

> <PUBCHEM_EFFECTIVE_ROTOR_COUNT>
9

> <PUBCHEM_PHARMACOPHORE_FEATURES>
7
1 1 acceptor
1 2 acceptor
1 3 acceptor
1 3 donor
1 4 acceptor
1 5 acceptor
1 6 acceptor

> <PUBCHEM_HEAVY_ATOM_COUNT>
16

> <PUBCHEM_ATOM_DEF_STEREO_COUNT>
3

> <PUBCHEM_ATOM_UDEF_STEREO_COUNT>
0

> <PUBCHEM_BOND_DEF_STEREO_COUNT>
0

> <PUBCHEM_BOND_UDEF_STEREO_COUNT>
0

> <PUBCHEM_ISOTOPIC_ATOM_COUNT>
0

> <PUBCHEM_COMPONENT_COUNT>
1

> <PUBCHEM_CACTVS_TAUTO_COUNT>
3

> <PUBCHEM_CONFORMER_ID>
033BB8CB00000001

> <PUBCHEM_MMFF94_ENERGY>
44.5775

> <PUBCHEM_FEATURE_SELFOVERLAP>
35.552

> <PUBCHEM_SHAPE_FINGERPRINT>
10610426 29 12823285784792558793
11132069 177 13695872527763788033
12138202 97 18411703213790174326
122479 349 17458356259701391620
12251169 10 12324248256087004924
12423570 1 11656480574999880058
12491281 212 17822006562270983544
14817 1 10909086979278477555
15534591 1 17676204705861719720
15775835 57 17313099748222003836
16945 1 18342737450796988210
1741750 31 18335419075606294340
18186145 218 18269004097837769151
18534176 82 18340206413663662206
19765921 60 18341889649991146731
20344682 10 14851605445006070885
20645476 183 18408600370527822407
20645477 56 18335427910570449628
20671657 53 14979950397728802737
20711985 344 18045768250865258091
20820808 20 18265892458661996403
20871999 31 18342734161010334101
21061003 4 17200531885473157154
21524375 3 17967526848755346565
22713019 5 16773520966811056073
23382010 3 18342447149683531117
23526113 38 17988928872412444247
23557571 272 18265345069559698582
23559900 14 18202567294190151152
24859131 72 7997974578378539925
25 1 18272932683090956519
2748010 2 17558256889694535288
298252 57 18186802465388352729
430814 3 17530956960827373041
549884 4 17773858862196770425
633830 44 18196652896052281189
81228 2 17978205469384006083

> <PUBCHEM_SHAPE_MULTIPOLES>
294.06
6.84
2.45
1.7
4.33
1.76
-1.4
-6.13
3.55
-2.26
0.14
0.01
-0.58
0.32

> <PUBCHEM_SHAPE_SELFOVERLAP>
554.125

> <PUBCHEM_SHAPE_VOLUME>
183.4

> <PUBCHEM_COORDINATE_TYPE>
2
5
10