5460765
  -OEChem-05072106003D

 30 30  0     1  0  0  0  0  0999 V2000
   -3.9174   -1.6502   -0.1621 P   0  0  0  0  0  0  0  0  0  0  0  0
    4.0040   -1.6189    0.1009 P   0  0  0  0  0  0  0  0  0  0  0  0
    0.0647    0.1989   -0.3140 O   0  0  0  0  0  0  0  0  0  0  0  0
   -0.9399    0.9109    1.6850 O   0  0  0  0  0  0  0  0  0  0  0  0
   -1.3374    3.3906    0.6059 O   0  0  0  0  0  0  0  0  0  0  0  0
    1.3736    3.4643   -0.8820 O   0  0  0  0  0  0  0  0  0  0  0  0
   -2.5231   -0.8536    0.2294 O   0  0  0  0  0  0  0  0  0  0  0  0
    2.6926   -0.7805   -0.4543 O   0  0  0  0  0  0  0  0  0  0  0  0
   -3.7451   -3.0182    0.4912 O   0  5  0  0  0  0  0  0  0  0  0  0
   -3.9255   -1.6884   -1.6875 O   0  5  0  0  0  0  0  0  0  0  0  0
   -5.0303   -0.8059    0.4519 O   0  0  0  0  0  0  0  0  0  0  0  0
    3.9555   -2.9239   -0.6879 O   0  5  0  0  0  0  0  0  0  0  0  0
    3.7501   -1.7884    1.5960 O   0  5  0  0  0  0  0  0  0  0  0  0
    5.2002   -0.7341   -0.2376 O   0  0  0  0  0  0  0  0  0  0  0  0
   -0.7009    2.4109   -0.1900 C   0  0  2  0  0  0  0  0  0  0  0  0
   -0.9972    0.9837    0.2595 C   0  0  1  0  0  0  0  0  0  0  0  0
    0.8077    2.4521   -0.0704 C   0  0  1  0  0  0  0  0  0  0  0  0
    1.1840    1.0673   -0.5851 C   0  0  1  0  0  0  0  0  0  0  0  0
   -2.3454    0.4763   -0.2274 C   0  0  0  0  0  0  0  0  0  0  0  0
    2.4301    0.5072    0.0785 C   0  0  0  0  0  0  0  0  0  0  0  0
   -1.0032    2.5699   -1.2331 H   0  0  0  0  0  0  0  0  0  0  0  0
    1.1330    2.6295    0.9602 H   0  0  0  0  0  0  0  0  0  0  0  0
    1.3238    1.0625   -1.6733 H   0  0  0  0  0  0  0  0  0  0  0  0
   -2.3897    0.4793   -1.3212 H   0  0  0  0  0  0  0  0  0  0  0  0
   -3.1561    1.0931    0.1732 H   0  0  0  0  0  0  0  0  0  0  0  0
    2.2759    0.4062    1.1579 H   0  0  0  0  0  0  0  0  0  0  0  0
    3.2901    1.1595   -0.1020 H   0  0  0  0  0  0  0  0  0  0  0  0
   -0.4756    1.6882    2.0344 H   0  0  0  0  0  0  0  0  0  0  0  0
   -0.9990    4.2581    0.3258 H   0  0  0  0  0  0  0  0  0  0  0  0
    1.0736    3.3289   -1.7968 H   0  0  0  0  0  0  0  0  0  0  0  0
  1  7  1  0  0  0  0
  1  9  1  0  0  0  0
  1 10  1  0  0  0  0
  1 11  2  0  0  0  0
  2  8  1  0  0  0  0
  2 12  1  0  0  0  0
  2 13  1  0  0  0  0
  2 14  2  0  0  0  0
  3 16  1  0  0  0  0
  3 18  1  0  0  0  0
  4 16  1  0  0  0  0
  4 28  1  0  0  0  0
  5 15  1  0  0  0  0
  5 29  1  0  0  0  0
  6 17  1  0  0  0  0
  6 30  1  0  0  0  0
  7 19  1  0  0  0  0
  8 20  1  0  0  0  0
 15 16  1  0  0  0  0
 15 17  1  0  0  0  0
 15 21  1  0  0  0  0
 16 19  1  0  0  0  0
 17 18  1  0  0  0  0
 17 22  1  0  0  0  0
 18 20  1  0  0  0  0
 18 23  1  0  0  0  0
 19 24  1  0  0  0  0
 19 25  1  0  0  0  0
 20 26  1  0  0  0  0
 20 27  1  0  0  0  0
M  CHG  4   9  -1  10  -1  12  -1  13  -1
M  END
> <PUBCHEM_COMPOUND_CID>
5460765

> <PUBCHEM_CONFORMER_RMSD>
0.8

> <PUBCHEM_CONFORMER_DIVERSEORDER>
1
4
22
12
16
8
17
11
7
20
6
10
15
18
9
2
19
21
13
14
5
3

> <PUBCHEM_MMFF94_PARTIAL_CHARGES>
23
1 1.37
10 -1.03
11 -1.03
12 -1.03
13 -1.03
14 -1.03
15 0.28
16 0.56
17 0.28
18 0.28
19 0.28
2 1.37
20 0.28
28 0.4
29 0.4
3 -0.56
30 0.4
4 -0.68
5 -0.68
6 -0.68
7 -0.55
8 -0.55
9 -1.03

> <PUBCHEM_EFFECTIVE_ROTOR_COUNT>
7

> <PUBCHEM_PHARMACOPHORE_FEATURES>
16
1 10 acceptor
1 11 acceptor
1 12 acceptor
1 13 acceptor
1 14 acceptor
1 3 acceptor
1 4 acceptor
1 4 donor
1 5 acceptor
1 5 donor
1 6 acceptor
1 6 donor
1 9 acceptor
4 1 9 10 11 anion
4 2 12 13 14 anion
5 3 15 16 17 18 rings

> <PUBCHEM_HEAVY_ATOM_COUNT>
20

> <PUBCHEM_ATOM_DEF_STEREO_COUNT>
4

> <PUBCHEM_ATOM_UDEF_STEREO_COUNT>
0

> <PUBCHEM_BOND_DEF_STEREO_COUNT>
0

> <PUBCHEM_BOND_UDEF_STEREO_COUNT>
0

> <PUBCHEM_ISOTOPIC_ATOM_COUNT>
0

> <PUBCHEM_COMPONENT_COUNT>
1

> <PUBCHEM_CACTVS_TAUTO_COUNT>
1

> <PUBCHEM_CONFORMER_ID>
0053531D00000001

> <PUBCHEM_MMFF94_ENERGY>
58.7894

> <PUBCHEM_FEATURE_SELFOVERLAP>
81.346

> <PUBCHEM_SHAPE_FINGERPRINT>
11265709 11 18410577283702334145
11552529 35 17988079959673744986
12107183 9 18341067254876542027
12363563 72 18409453582903409510
12553582 1 18338248110319011686
12633257 1 15697993059175693006
13004483 165 18339068315986323850
13083527 12 18339349872973867872
13533116 47 18051412066221924123
13955234 65 17693379245692828265
14123255 52 9187765448090540486
14866123 147 18123756353246625243
15042514 8 18194970629918185825
15099037 8 18411705386985655841
15342168 16 10087646992049138923
15352361 1 18410294713593755342
17134986 127 9079127656410901048
17539 30 18265040341330055717
18186145 218 17241598593552372357
19141452 34 18197786505030021201
20281475 54 18267588094966304807
20291156 8 18410573989494222526
20567600 70 18189612911920313554
20621476 51 17902779783209221258
20626108 58 17987226914781426415
20645477 70 18117272777721701371
20671657 53 18335421296194070405
21250096 35 18410852183242597511
21452121 199 18339631343201852832
21452121 71 18335988626919337412
221490 88 18190185783126674083
23526113 38 17750517462799625265
23557571 272 18057609759389126548
23559900 14 18410284848006273792
314173 41 18334860532221247234
3421961 26 18339644563121440529
6433294 58 17832148590417297171

> <PUBCHEM_SHAPE_MULTIPOLES>
348.86
9.11
3.92
1.05
0.89
1.52
0.13
-10.77
-0.24
0.1
-0.21
-0.13
-0.21
-0.64

> <PUBCHEM_SHAPE_SELFOVERLAP>
679.423

> <PUBCHEM_SHAPE_VOLUME>
211.9

> <PUBCHEM_COORDINATE_TYPE>
2
5
10