566756
  -OEChem-05072106003D

 86 87  0     1  0  0  0  0  0999 V2000
   -1.7972   -3.3726    0.7621 Si  0  0  0  0  0  0  0  0  0  0  0  0
    0.7501   -0.4117   -3.1858 Si  0  0  0  0  0  0  0  0  0  0  0  0
    0.9777    3.5240    0.6042 Si  0  0  0  0  0  0  0  0  0  0  0  0
    4.3071   -0.8557    0.6941 Si  0  0  0  0  0  0  0  0  0  0  0  0
    0.3171   -1.4850    1.2672 O   0  0  0  0  0  0  0  0  0  0  0  0
   -1.4699   -2.0026   -0.1403 O   0  0  0  0  0  0  0  0  0  0  0  0
    0.5155   -0.9250   -1.6083 O   0  0  0  0  0  0  0  0  0  0  0  0
    0.2206    2.0372    0.4723 O   0  0  0  0  0  0  0  0  0  0  0  0
    2.8030   -0.4902    0.0508 O   0  0  0  0  0  0  0  0  0  0  0  0
   -2.6158    0.6485    0.5039 N   0  0  0  0  0  0  0  0  0  0  0  0
   -0.7220   -0.9297    0.4547 C   0  0  2  0  0  0  0  0  0  0  0  0
   -0.1336   -0.0553   -0.6726 C   0  0  1  0  0  0  0  0  0  0  0  0
    0.8972    0.9633   -0.1716 C   0  0  2  0  0  0  0  0  0  0  0  0
    1.8989    0.3250    0.7948 C   0  0  1  0  0  0  0  0  0  0  0  0
   -1.7427   -0.1895    1.3254 C   0  0  0  0  0  0  0  0  0  0  0  0
    1.2080   -0.5338    1.8507 C   0  0  0  0  0  0  0  0  0  0  0  0
   -3.6602   -0.1664   -0.1326 C   0  0  0  0  0  0  0  0  0  0  0  0
   -3.2022    1.7271    1.3119 C   0  0  0  0  0  0  0  0  0  0  0  0
   -4.5528    0.6873   -1.0346 C   0  0  0  0  0  0  0  0  0  0  0  0
   -4.0798    2.6427    0.4569 C   0  0  0  0  0  0  0  0  0  0  0  0
   -5.1647    1.8532   -0.2664 C   0  0  0  0  0  0  0  0  0  0  0  0
   -2.8127   -2.9597    2.2909 C   0  0  0  0  0  0  0  0  0  0  0  0
   -2.7856   -4.5911   -0.2813 C   0  0  0  0  0  0  0  0  0  0  0  0
   -0.2132   -4.2271    1.3085 C   0  0  0  0  0  0  0  0  0  0  0  0
   -0.7722    0.5266   -3.7794 C   0  0  0  0  0  0  0  0  0  0  0  0
    1.0230   -1.8684   -4.3443 C   0  0  0  0  0  0  0  0  0  0  0  0
    2.2303    0.7416   -3.3151 C   0  0  0  0  0  0  0  0  0  0  0  0
   -0.2685    4.9025    0.8953 C   0  0  0  0  0  0  0  0  0  0  0  0
    2.2230    3.5352    2.0140 C   0  0  0  0  0  0  0  0  0  0  0  0
    1.9031    3.9040   -0.9926 C   0  0  0  0  0  0  0  0  0  0  0  0
    5.5158   -1.3757   -0.6503 C   0  0  0  0  0  0  0  0  0  0  0  0
    4.1882   -2.2411    1.9608 C   0  0  0  0  0  0  0  0  0  0  0  0
    5.0146    0.6625    1.5570 C   0  0  0  0  0  0  0  0  0  0  0  0
   -0.9498    0.4586   -1.1876 H   0  0  0  0  0  0  0  0  0  0  0  0
    1.4547    1.3509   -1.0183 H   0  0  0  0  0  0  0  0  0  0  0  0
    2.4570    1.0975    1.3165 H   0  0  0  0  0  0  0  0  0  0  0  0
   -1.1869    0.4898    1.9785 H   0  0  0  0  0  0  0  0  0  0  0  0
   -2.3195   -0.7553    2.0394 H   0  0  0  0  0  0  0  0  0  0  0  0
    0.6730    0.0949    2.5681 H   0  0  0  0  0  0  0  0  0  0  0  0
    1.9074   -1.1066    2.4556 H   0  0  0  0  0  0  0  0  0  0  0  0
   -4.2835   -0.6700    0.6155 H   0  0  0  0  0  0  0  0  0  0  0  0
   -3.2530   -0.9221   -0.8030 H   0  0  0  0  0  0  0  0  0  0  0  0
   -2.4105    2.3426    1.7554 H   0  0  0  0  0  0  0  0  0  0  0  0
   -3.7960    1.3153    2.1387 H   0  0  0  0  0  0  0  0  0  0  0  0
   -3.9630    1.0739   -1.8758 H   0  0  0  0  0  0  0  0  0  0  0  0
   -5.3503    0.0683   -1.4614 H   0  0  0  0  0  0  0  0  0  0  0  0
   -4.5401    3.4103    1.0890 H   0  0  0  0  0  0  0  0  0  0  0  0
   -3.4557    3.1659   -0.2790 H   0  0  0  0  0  0  0  0  0  0  0  0
   -5.8879    1.4708    0.4642 H   0  0  0  0  0  0  0  0  0  0  0  0
   -5.7137    2.5086   -0.9514 H   0  0  0  0  0  0  0  0  0  0  0  0
   -2.2126   -2.4853    3.0726 H   0  0  0  0  0  0  0  0  0  0  0  0
   -3.6977   -2.3629    2.0599 H   0  0  0  0  0  0  0  0  0  0  0  0
   -3.1787   -3.8986    2.7224 H   0  0  0  0  0  0  0  0  0  0  0  0
   -2.2191   -4.8790   -1.1718 H   0  0  0  0  0  0  0  0  0  0  0  0
   -3.0119   -5.4948    0.2921 H   0  0  0  0  0  0  0  0  0  0  0  0
   -3.7289   -4.1401   -0.6030 H   0  0  0  0  0  0  0  0  0  0  0  0
    0.5355   -4.2046    0.5110 H   0  0  0  0  0  0  0  0  0  0  0  0
   -0.4195   -5.2754    1.5471 H   0  0  0  0  0  0  0  0  0  0  0  0
    0.2113   -3.7690    2.2060 H   0  0  0  0  0  0  0  0  0  0  0  0
   -1.6780   -0.0642   -3.6139 H   0  0  0  0  0  0  0  0  0  0  0  0
   -0.6920    0.7375   -4.8501 H   0  0  0  0  0  0  0  0  0  0  0  0
   -0.8768    1.4817   -3.2561 H   0  0  0  0  0  0  0  0  0  0  0  0
    1.1578   -1.5235   -5.3737 H   0  0  0  0  0  0  0  0  0  0  0  0
    0.1643   -2.5456   -4.3169 H   0  0  0  0  0  0  0  0  0  0  0  0
    1.9140   -2.4302   -4.0492 H   0  0  0  0  0  0  0  0  0  0  0  0
    3.0400    0.4233   -2.6533 H   0  0  0  0  0  0  0  0  0  0  0  0
    2.6149    0.7356   -4.3401 H   0  0  0  0  0  0  0  0  0  0  0  0
    1.9577    1.7728   -3.0821 H   0  0  0  0  0  0  0  0  0  0  0  0
   -0.9939    4.9417    0.0773 H   0  0  0  0  0  0  0  0  0  0  0  0
    0.2343    5.8719    0.9577 H   0  0  0  0  0  0  0  0  0  0  0  0
   -0.8132    4.7352    1.8292 H   0  0  0  0  0  0  0  0  0  0  0  0
    2.4023    4.5625    2.3464 H   0  0  0  0  0  0  0  0  0  0  0  0
    3.1852    3.1231    1.7017 H   0  0  0  0  0  0  0  0  0  0  0  0
    1.8495    2.9635    2.8684 H   0  0  0  0  0  0  0  0  0  0  0  0
    2.7587    3.2355   -1.1239 H   0  0  0  0  0  0  0  0  0  0  0  0
    2.2820    4.9304   -0.9714 H   0  0  0  0  0  0  0  0  0  0  0  0
    1.2380    3.8053   -1.8553 H   0  0  0  0  0  0  0  0  0  0  0  0
    6.4981   -1.5968   -0.2227 H   0  0  0  0  0  0  0  0  0  0  0  0
    5.6326   -0.5776   -1.3894 H   0  0  0  0  0  0  0  0  0  0  0  0
    5.1539   -2.2705   -1.1651 H   0  0  0  0  0  0  0  0  0  0  0  0
    3.8793   -1.8664    2.9402 H   0  0  0  0  0  0  0  0  0  0  0  0
    5.1653   -2.7178    2.0875 H   0  0  0  0  0  0  0  0  0  0  0  0
    3.4778   -3.0056    1.6331 H   0  0  0  0  0  0  0  0  0  0  0  0
    5.0038    1.5260    0.8857 H   0  0  0  0  0  0  0  0  0  0  0  0
    6.0507    0.4763    1.8559 H   0  0  0  0  0  0  0  0  0  0  0  0
    4.4457    0.9080    2.4583 H   0  0  0  0  0  0  0  0  0  0  0  0
  1  6  1  0  0  0  0
  1 22  1  0  0  0  0
  1 23  1  0  0  0  0
  1 24  1  0  0  0  0
  2  7  1  0  0  0  0
  2 25  1  0  0  0  0
  2 26  1  0  0  0  0
  2 27  1  0  0  0  0
  3  8  1  0  0  0  0
  3 28  1  0  0  0  0
  3 29  1  0  0  0  0
  3 30  1  0  0  0  0
  4  9  1  0  0  0  0
  4 31  1  0  0  0  0
  4 32  1  0  0  0  0
  4 33  1  0  0  0  0
  5 11  1  0  0  0  0
  5 16  1  0  0  0  0
  6 11  1  0  0  0  0
  7 12  1  0  0  0  0
  8 13  1  0  0  0  0
  9 14  1  0  0  0  0
 10 15  1  0  0  0  0
 10 17  1  0  0  0  0
 10 18  1  0  0  0  0
 11 12  1  0  0  0  0
 11 15  1  0  0  0  0
 12 13  1  0  0  0  0
 12 34  1  0  0  0  0
 13 14  1  0  0  0  0
 13 35  1  0  0  0  0
 14 16  1  0  0  0  0
 14 36  1  0  0  0  0
 15 37  1  0  0  0  0
 15 38  1  0  0  0  0
 16 39  1  0  0  0  0
 16 40  1  0  0  0  0
 17 19  1  0  0  0  0
 17 41  1  0  0  0  0
 17 42  1  0  0  0  0
 18 20  1  0  0  0  0
 18 43  1  0  0  0  0
 18 44  1  0  0  0  0
 19 21  1  0  0  0  0
 19 45  1  0  0  0  0
 19 46  1  0  0  0  0
 20 21  1  0  0  0  0
 20 47  1  0  0  0  0
 20 48  1  0  0  0  0
 21 49  1  0  0  0  0
 21 50  1  0  0  0  0
 22 51  1  0  0  0  0
 22 52  1  0  0  0  0
 22 53  1  0  0  0  0
 23 54  1  0  0  0  0
 23 55  1  0  0  0  0
 23 56  1  0  0  0  0
 24 57  1  0  0  0  0
 24 58  1  0  0  0  0
 24 59  1  0  0  0  0
 25 60  1  0  0  0  0
 25 61  1  0  0  0  0
 25 62  1  0  0  0  0
 26 63  1  0  0  0  0
 26 64  1  0  0  0  0
 26 65  1  0  0  0  0
 27 66  1  0  0  0  0
 27 67  1  0  0  0  0
 27 68  1  0  0  0  0
 28 69  1  0  0  0  0
 28 70  1  0  0  0  0
 28 71  1  0  0  0  0
 29 72  1  0  0  0  0
 29 73  1  0  0  0  0
 29 74  1  0  0  0  0
 30 75  1  0  0  0  0
 30 76  1  0  0  0  0
 30 77  1  0  0  0  0
 31 78  1  0  0  0  0
 31 79  1  0  0  0  0
 31 80  1  0  0  0  0
 32 81  1  0  0  0  0
 32 82  1  0  0  0  0
 32 83  1  0  0  0  0
 33 84  1  0  0  0  0
 33 85  1  0  0  0  0
 33 86  1  0  0  0  0
M  END
> <PUBCHEM_COMPOUND_CID>
566756

> <PUBCHEM_CONFORMER_RMSD>
1.2

> <PUBCHEM_CONFORMER_DIVERSEORDER>
1
7
22
13
8
2
9
3
16
15
23
12
18
6
5
11
4
19
25
17
24
10
14
20
21

> <PUBCHEM_MMFF94_PARTIAL_CHARGES>
30
1 0.54
10 -0.81
11 0.56
12 0.28
13 0.28
14 0.28
15 0.27
16 0.28
17 0.27
18 0.27
2 0.54
22 -0.08
23 -0.08
24 -0.08
25 -0.08
26 -0.08
27 -0.08
28 -0.08
29 -0.08
3 0.54
30 -0.08
31 -0.08
32 -0.08
33 -0.08
4 0.54
5 -0.56
6 -0.58
7 -0.58
8 -0.58
9 -0.58

> <PUBCHEM_EFFECTIVE_ROTOR_COUNT>
12.4

> <PUBCHEM_PHARMACOPHORE_FEATURES>
4
1 10 cation
1 5 acceptor
6 10 17 18 19 20 21 rings
6 5 11 12 13 14 16 rings

> <PUBCHEM_HEAVY_ATOM_COUNT>
33

> <PUBCHEM_ATOM_DEF_STEREO_COUNT>
0

> <PUBCHEM_ATOM_UDEF_STEREO_COUNT>
4

> <PUBCHEM_BOND_DEF_STEREO_COUNT>
0

> <PUBCHEM_BOND_UDEF_STEREO_COUNT>
0

> <PUBCHEM_ISOTOPIC_ATOM_COUNT>
0

> <PUBCHEM_COMPONENT_COUNT>
1

> <PUBCHEM_CACTVS_TAUTO_COUNT>
1

> <PUBCHEM_CONFORMER_ID>
0008A5E400000001

> <PUBCHEM_MMFF94_ENERGY>
81.1967

> <PUBCHEM_FEATURE_SELFOVERLAP>
20.297

> <PUBCHEM_SHAPE_FINGERPRINT>
10906281 52 18129679516337197464
10930396 42 18050532272103696528
1100329 8 18409442609456991649
11578080 2 17679000837019744052
11763715 3 17757282843808447851
12058002 1 17630913554144592137
12107698 1 18129645517918920639
12160290 23 15037734982429198222
12422481 6 17487890108412137260
12633046 712 18335971065209644358
12788726 201 18266460898053172866
133893 2 16055780688209894799
13583140 156 18127406984958597288
13642711 20 17977640057797211164
14790565 3 18193269702562205520
14840074 17 17386011602807947150
15219462 58 17976258267933223374
16114785 44 17836041678124077152
17974551 9 18261950863910619458
17980427 23 17917705790826305345
20600515 1 18340222794890702556
20691752 17 17911825490791935177
20905425 154 17980772854266603265
21033648 29 17677592221218066053
21703447 108 17907003324718716314
23419403 2 17467033747528618774
23559900 14 18050553338132461546
25222932 49 16684576338670947374
25223398 141 17822015337564545523
3178227 256 18335991879022035913
3380486 77 18265344923304593792
3493558 16 17538825285311367421
460360 51 18261966265800661952
57527306 92 17915150504491969609
57527573 199 18268719302941054833
70251023 43 18122345954184675019

> <PUBCHEM_SHAPE_MULTIPOLES>
717.65
8.06
5.89
3.5
1.11
1.73
-5.23
-0.76
2.67
-2.27
2.93
1.6
-1.2
0.66

> <PUBCHEM_SHAPE_SELFOVERLAP>
1349.307

> <PUBCHEM_SHAPE_VOLUME>
450.8

> <PUBCHEM_COORDINATE_TYPE>
2
5
10