603
  -OEChem-05072106003D

 29 28  0     1  0  0  0  0  0999 V2000
    3.3053   -0.4438   -0.3568 P   0  0  0  0  0  0  0  0  0  0  0  0
   -1.6992    2.3565    0.1067 O   0  0  0  0  0  0  0  0  0  0  0  0
    0.5045    2.0078    1.7773 O   0  0  0  0  0  0  0  0  0  0  0  0
    2.0218    0.4478    0.0534 O   0  0  0  0  0  0  0  0  0  0  0  0
   -1.9636    0.7749   -2.1830 O   0  0  0  0  0  0  0  0  0  0  0  0
   -3.7216   -0.1668   -0.3374 O   0  0  0  0  0  0  0  0  0  0  0  0
   -3.3089   -2.3932    1.0675 O   0  0  0  0  0  0  0  0  0  0  0  0
    2.6577   -1.7850   -0.9870 O   0  0  0  0  0  0  0  0  0  0  0  0
    3.8661   -0.9396    1.0766 O   0  0  0  0  0  0  0  0  0  0  0  0
    4.3124    0.2516   -1.2253 O   0  0  0  0  0  0  0  0  0  0  0  0
   -0.7638    1.3207   -0.1791 C   0  0  1  0  0  0  0  0  0  0  0  0
   -0.0819    0.8795    1.1293 C   0  0  1  0  0  0  0  0  0  0  0  0
   -1.4297    0.2025   -0.9957 C   0  0  1  0  0  0  0  0  0  0  0  0
    1.0235   -0.1463    0.8770 C   0  0  0  0  0  0  0  0  0  0  0  0
   -2.5524   -0.5513   -0.2848 C   0  0  0  0  0  0  0  0  0  0  0  0
   -2.1703   -1.8152    0.4614 C   0  0  0  0  0  0  0  0  0  0  0  0
   -0.0200    1.8051   -0.8253 H   0  0  0  0  0  0  0  0  0  0  0  0
   -0.8244    0.4842    1.8286 H   0  0  0  0  0  0  0  0  0  0  0  0
   -0.6879   -0.5307   -1.3266 H   0  0  0  0  0  0  0  0  0  0  0  0
    1.4858   -0.4135    1.8331 H   0  0  0  0  0  0  0  0  0  0  0  0
    0.6473   -1.0574    0.4084 H   0  0  0  0  0  0  0  0  0  0  0  0
   -1.2291    3.0495    0.6012 H   0  0  0  0  0  0  0  0  0  0  0  0
    1.1766    2.3770    1.1790 H   0  0  0  0  0  0  0  0  0  0  0  0
   -1.7545   -2.5351   -0.2483 H   0  0  0  0  0  0  0  0  0  0  0  0
   -1.4415   -1.6054    1.2432 H   0  0  0  0  0  0  0  0  0  0  0  0
   -2.5779    1.4822   -1.9213 H   0  0  0  0  0  0  0  0  0  0  0  0
   -3.6213   -1.7758    1.7509 H   0  0  0  0  0  0  0  0  0  0  0  0
    3.2526   -2.4646   -1.3697 H   0  0  0  0  0  0  0  0  0  0  0  0
    4.7126   -1.4341    1.1098 H   0  0  0  0  0  0  0  0  0  0  0  0
  1  4  1  0  0  0  0
  1  8  1  0  0  0  0
  1  9  1  0  0  0  0
  1 10  2  0  0  0  0
  2 11  1  0  0  0  0
  2 22  1  0  0  0  0
  3 12  1  0  0  0  0
  3 23  1  0  0  0  0
  4 14  1  0  0  0  0
  5 13  1  0  0  0  0
  5 26  1  0  0  0  0
  6 15  2  0  0  0  0
  7 16  1  0  0  0  0
  7 27  1  0  0  0  0
  8 28  1  0  0  0  0
  9 29  1  0  0  0  0
 11 12  1  0  0  0  0
 11 13  1  0  0  0  0
 11 17  1  0  0  0  0
 12 14  1  0  0  0  0
 12 18  1  0  0  0  0
 13 15  1  0  0  0  0
 13 19  1  0  0  0  0
 14 20  1  0  0  0  0
 14 21  1  0  0  0  0
 15 16  1  0  0  0  0
 16 24  1  0  0  0  0
 16 25  1  0  0  0  0
M  END
> <PUBCHEM_COMPOUND_CID>
603

> <PUBCHEM_CONFORMER_RMSD>
1

> <PUBCHEM_CONFORMER_DIVERSEORDER>
3
58
458
4
563
164
205
49
354
139
219
2
6
518
377
586
211
337
499
40
95
86
402
169
208
384
172
67
223
549
273
161
10
513
297
459
71
176
115
26
250
187
465
553
200
140
153
373
367
175
76
126
386
1
42
120
330
118
7
30
320
107
268
492
264
497
17
301
500
89
20
327
70
514
18
166
557
289
451
54
125
37
566
34
36
543
92
73
199
15
65
69
111
433
12
44
536
8
5
141
131
308
212
178
535
137
291
145
539
46
97
351
56
409
390
59
340
88
28
328
51
27
241
150
217
197
530
323
307
52
83
133
22
411
189
593
128
157
561
136
329
420

> <PUBCHEM_MMFF94_PARTIAL_CHARGES>
22
1 1.51
10 -0.7
11 0.28
12 0.28
13 0.34
14 0.28
15 0.45
16 0.34
2 -0.68
22 0.4
23 0.4
26 0.4
27 0.4
28 0.5
29 0.5
3 -0.68
4 -0.55
5 -0.68
6 -0.57
7 -0.68
8 -0.77
9 -0.77

> <PUBCHEM_EFFECTIVE_ROTOR_COUNT>
7

> <PUBCHEM_PHARMACOPHORE_FEATURES>
13
1 10 acceptor
1 2 acceptor
1 2 donor
1 3 acceptor
1 3 donor
1 5 acceptor
1 5 donor
1 6 acceptor
1 7 acceptor
1 7 donor
1 8 acceptor
1 9 acceptor
4 1 8 9 10 anion

> <PUBCHEM_HEAVY_ATOM_COUNT>
16

> <PUBCHEM_ATOM_DEF_STEREO_COUNT>
0

> <PUBCHEM_ATOM_UDEF_STEREO_COUNT>
3

> <PUBCHEM_BOND_DEF_STEREO_COUNT>
0

> <PUBCHEM_BOND_UDEF_STEREO_COUNT>
0

> <PUBCHEM_ISOTOPIC_ATOM_COUNT>
0

> <PUBCHEM_COMPONENT_COUNT>
1

> <PUBCHEM_CACTVS_TAUTO_COUNT>
10

> <PUBCHEM_CONFORMER_ID>
0000025B00000003

> <PUBCHEM_MMFF94_ENERGY>
-10.5828

> <PUBCHEM_FEATURE_SELFOVERLAP>
66.044

> <PUBCHEM_SHAPE_FINGERPRINT>
10799339 124 11312059837899832468
12173636 292 18119242866130207909
12202030 40 18265881643981967211
13571099 52 9582979963824916995
15276787 5 13110975209944954606
19766037 51 18272657873866572578
20201158 50 18342736312573002566
20281407 28 17989486329197340646
20361792 2 17489581273106695132
20645476 183 17906176148408710968
20711983 138 18340761633044969185
20871999 31 17749383815135777287
21061003 4 17561366201135066400
21524375 3 16692745134707867632
22721475 48 18413103970055082987
23557571 272 18270110215816557440
23559900 14 18337376159776540162
23598291 2 15143738997300148265
238078 22 18263940988636713466
2748010 2 18122041351087798641
576247 118 18271810167465408121
81228 2 17772743867101551888

> <PUBCHEM_SHAPE_MULTIPOLES>
280.3
6.63
2.1
1.5
4.55
0.07
0.2
3.2
1.19
-1.36
-0.66
0.03
-0.32
0.84

> <PUBCHEM_SHAPE_SELFOVERLAP>
527.507

> <PUBCHEM_SHAPE_VOLUME>
173.5

> <PUBCHEM_COORDINATE_TYPE>
2
5
10