6102820
  -OEChem-05072106003D

 29 31  0     0  0  0  0  0  0999 V2000
   -3.4410    2.0563    1.5957 Cl  0  0  0  0  0  0  0  0  0  0  0  0
   -2.9826   -3.7622   -0.6031 Cl  0  0  0  0  0  0  0  0  0  0  0  0
    6.4601   -0.7414    1.1050 Cl  0  0  0  0  0  0  0  0  0  0  0  0
   -1.7411    1.4634   -1.0911 S   0  0  0  0  0  0  0  0  0  0  0  0
    1.0957    0.1884   -0.9070 O   0  0  0  0  0  0  0  0  0  0  0  0
   -1.1794    0.8602   -2.2848 O   0  0  0  0  0  0  0  0  0  0  0  0
   -2.6611    2.5799   -1.1953 O   0  0  0  0  0  0  0  0  0  0  0  0
   -0.5203    1.8194    0.0051 N   0  0  0  0  0  0  0  0  0  0  0  0
    1.7186    1.4527    0.8680 N   0  0  0  0  0  0  0  0  0  0  0  0
   -2.5694    0.1834   -0.1939 C   0  0  0  0  0  0  0  0  0  0  0  0
    0.7779    1.1555   -0.0015 C   0  0  0  0  0  0  0  0  0  0  0  0
    2.7502    0.6162    0.5161 C   0  0  0  0  0  0  0  0  0  0  0  0
    2.3725   -0.1594   -0.5701 C   0  0  0  0  0  0  0  0  0  0  0  0
   -3.2928    0.4592    0.9562 C   0  0  0  0  0  0  0  0  0  0  0  0
   -2.4662   -1.1101   -0.6843 C   0  0  0  0  0  0  0  0  0  0  0  0
    4.0329    0.4468    1.0564 C   0  0  0  0  0  0  0  0  0  0  0  0
    3.1784   -1.1120   -1.1812 C   0  0  0  0  0  0  0  0  0  0  0  0
   -3.1018   -2.1516   -0.0083 C   0  0  0  0  0  0  0  0  0  0  0  0
   -3.9284   -0.5824    1.6320 C   0  0  0  0  0  0  0  0  0  0  0  0
   -3.8328   -1.8878    1.1499 C   0  0  0  0  0  0  0  0  0  0  0  0
    4.8759   -0.5060    0.4663 C   0  0  0  0  0  0  0  0  0  0  0  0
    4.4548   -1.2687   -0.6301 C   0  0  0  0  0  0  0  0  0  0  0  0
   -0.5937    2.6397    0.6185 H   0  0  0  0  0  0  0  0  0  0  0  0
   -1.8985   -1.3374   -1.5818 H   0  0  0  0  0  0  0  0  0  0  0  0
    4.3558    1.0398    1.9065 H   0  0  0  0  0  0  0  0  0  0  0  0
    2.8429   -1.6965   -2.0287 H   0  0  0  0  0  0  0  0  0  0  0  0
   -4.5019   -0.3944    2.5363 H   0  0  0  0  0  0  0  0  0  0  0  0
   -4.3329   -2.6895    1.6870 H   0  0  0  0  0  0  0  0  0  0  0  0
    5.1238   -2.0034   -1.0742 H   0  0  0  0  0  0  0  0  0  0  0  0
  1 14  1  0  0  0  0
  2 18  1  0  0  0  0
  3 21  1  0  0  0  0
  4  6  2  0  0  0  0
  4  7  2  0  0  0  0
  4  8  1  0  0  0  0
  4 10  1  0  0  0  0
  5 11  1  0  0  0  0
  5 13  1  0  0  0  0
  8 11  1  0  0  0  0
  8 23  1  0  0  0  0
  9 11  2  0  0  0  0
  9 12  1  0  0  0  0
 10 14  2  0  0  0  0
 10 15  1  0  0  0  0
 12 13  2  0  0  0  0
 12 16  1  0  0  0  0
 13 17  1  0  0  0  0
 14 19  1  0  0  0  0
 15 18  2  0  0  0  0
 15 24  1  0  0  0  0
 16 21  2  0  0  0  0
 16 25  1  0  0  0  0
 17 22  2  0  0  0  0
 17 26  1  0  0  0  0
 18 20  1  0  0  0  0
 19 20  2  0  0  0  0
 19 27  1  0  0  0  0
 20 28  1  0  0  0  0
 21 22  1  0  0  0  0
 22 29  1  0  0  0  0
M  END
> <PUBCHEM_COMPOUND_CID>
6102820

> <PUBCHEM_CONFORMER_RMSD>
0.6

> <PUBCHEM_CONFORMER_DIVERSEORDER>
1
59
52
51
50
2
60
7
55
11
35
31
6
44
41
5
12
3
4
43
32
53
30
45
8
10
39
27
9
40
49
25
38
29
16
46
37
28
42
15
20
24
23
19
48
14
57
17
58
18
13
47
33
34
36
26
21
22
56
54

> <PUBCHEM_MMFF94_PARTIAL_CHARGES>
29
1 -0.18
10 -0.01
11 0.62
12 0.23
13 0.14
14 0.18
15 -0.15
16 -0.15
17 -0.15
18 0.18
19 -0.15
2 -0.18
20 -0.15
21 0.18
22 -0.15
23 0.42
24 0.15
25 0.15
26 0.15
27 0.15
28 0.15
29 0.15
3 -0.18
4 1.45
5 -0.28
6 -0.65
7 -0.65
8 -0.7
9 -0.57

> <PUBCHEM_EFFECTIVE_ROTOR_COUNT>
3

> <PUBCHEM_PHARMACOPHORE_FEATURES>
6
1 6 acceptor
1 7 acceptor
1 8 donor
5 5 9 11 12 13 rings
6 10 14 15 18 19 20 rings
6 12 13 16 17 21 22 rings

> <PUBCHEM_HEAVY_ATOM_COUNT>
22

> <PUBCHEM_ATOM_DEF_STEREO_COUNT>
0

> <PUBCHEM_ATOM_UDEF_STEREO_COUNT>
0

> <PUBCHEM_BOND_DEF_STEREO_COUNT>
0

> <PUBCHEM_BOND_UDEF_STEREO_COUNT>
0

> <PUBCHEM_ISOTOPIC_ATOM_COUNT>
0

> <PUBCHEM_COMPONENT_COUNT>
1

> <PUBCHEM_CACTVS_TAUTO_COUNT>
2

> <PUBCHEM_CONFORMER_ID>
005D1F2400000001

> <PUBCHEM_MMFF94_ENERGY>
34.2387

> <PUBCHEM_FEATURE_SELFOVERLAP>
30.582

> <PUBCHEM_SHAPE_FINGERPRINT>
11046707 91 18186802495468752979
11370993 144 17988087673186984514
11552529 35 18201437021009815883
11640471 11 13254527396728326453
11796584 16 17970900060894751762
12363563 72 17968939828618810755
12553582 1 17821731675642340395
12633257 1 17987816201442392123
12670546 177 12973608845667758320
12714826 92 18114181912928537573
13103583 49 18202013152117720227
13583140 156 16773792619065587986
13675066 3 17489873717635517200
13994607 96 11023826201884027059
14251751 93 17968375645825191850
14251764 30 16299252248767197315
15209289 33 18260837011318860242
16994733 274 14978840858459732347
17349148 13 16225766294725210432
17780758 139 18272086084965454184
1813 80 17822021951022748077
18927931 339 18187364311804346998
19141452 34 18341055189865098467
19377110 9 18113625629381603084
20281475 54 18338803419625496012
20681677 274 18057321897542969289
20775530 9 17762059139510107271
21403212 168 18268720424792735137
22393880 68 11746932109923395328
23402539 116 15936409988538535828
235170 7 13479135691895353954
23598288 3 17821737108939740973
341906 21 11095876030652725894
4325135 7 18113904905319214564
484985 159 18334563647387214343
4921388 177 17968373450986114445
5104073 3 18343574141176796904
5924683 9 17775001340835943039
602551 16 18334579036249481730
7495541 125 18334855035575530056
7808743 9 11095891487997710306
7970288 3 17531817977253912115

> <PUBCHEM_SHAPE_MULTIPOLES>
434.64
11.41
2.86
1.59
15.04
1.64
0.17
4.51
-4.82
-4.29
0.34
-0.77
-0.4
0.36

> <PUBCHEM_SHAPE_SELFOVERLAP>
913.623

> <PUBCHEM_SHAPE_VOLUME>
248.1

> <PUBCHEM_COORDINATE_TYPE>
2
5
10