612386
  -OEChem-05072106003D

101101  0     1  0  0  0  0  0999 V2000
   -3.1537    0.0897    0.8466 P   0  0  0  0  0  0  0  0  0  0  0  0
    0.4017    3.1495    0.6097 Si  0  0  0  0  0  0  0  0  0  0  0  0
    3.5853    1.3742   -2.4635 Si  0  0  0  0  0  0  0  0  0  0  0  0
    0.4168   -2.7552   -2.2615 Si  0  0  0  0  0  0  0  0  0  0  0  0
    4.7300   -1.0023    2.7502 Si  0  0  0  0  0  0  0  0  0  0  0  0
   -4.4801   -2.3898    0.5705 Si  0  0  0  0  0  0  0  0  0  0  0  0
   -4.6343    2.3049   -0.0901 Si  0  0  0  0  0  0  0  0  0  0  0  0
    0.7349   -1.4806    0.5360 O   0  0  0  0  0  0  0  0  0  0  0  0
    0.3612    1.4755    0.6112 O   0  0  0  0  0  0  0  0  0  0  0  0
    3.2581    0.2755   -1.2427 O   0  0  0  0  0  0  0  0  0  0  0  0
    0.9111   -1.2218   -1.8115 O   0  0  0  0  0  0  0  0  0  0  0  0
    4.1765   -0.4626    1.2612 O   0  0  0  0  0  0  0  0  0  0  0  0
   -1.6455   -0.4756    0.6254 O   0  0  0  0  0  0  0  0  0  0  0  0
   -4.0336   -0.9141   -0.0742 O   0  0  0  0  0  0  0  0  0  0  0  0
   -3.1795    1.4885    0.0273 O   0  0  0  0  0  0  0  0  0  0  0  0
   -3.5540    0.1457    2.2965 O   0  0  0  0  0  0  0  0  0  0  0  0
    1.0290    0.7566   -0.4249 C   0  0  1  0  0  0  0  0  0  0  0  0
    2.5269    0.7006   -0.0934 C   0  0  1  0  0  0  0  0  0  0  0  0
    0.4163   -0.6546   -0.5943 C   0  0  2  0  0  0  0  0  0  0  0  0
    2.7823   -0.2804    1.0537 C   0  0  1  0  0  0  0  0  0  0  0  0
    2.1337   -1.6278    0.7692 C   0  0  0  0  0  0  0  0  0  0  0  0
   -1.1114   -0.5926   -0.6828 C   0  0  0  0  0  0  0  0  0  0  0  0
    0.2144    3.7845   -1.1544 C   0  0  0  0  0  0  0  0  0  0  0  0
    2.0328    3.7945    1.2892 C   0  0  0  0  0  0  0  0  0  0  0  0
   -1.0007    3.8676    1.6373 C   0  0  0  0  0  0  0  0  0  0  0  0
    5.0315    0.8067   -3.5236 C   0  0  0  0  0  0  0  0  0  0  0  0
    4.0356    3.0411   -1.7091 C   0  0  0  0  0  0  0  0  0  0  0  0
    2.0895    1.6253   -3.5761 C   0  0  0  0  0  0  0  0  0  0  0  0
    0.3471   -3.8647   -0.7402 C   0  0  0  0  0  0  0  0  0  0  0  0
    1.6138   -3.5280   -3.4896 C   0  0  0  0  0  0  0  0  0  0  0  0
   -1.2972   -2.7226   -3.0355 C   0  0  0  0  0  0  0  0  0  0  0  0
    6.6086   -1.1443    2.7185 C   0  0  0  0  0  0  0  0  0  0  0  0
    4.0264   -2.6969    3.1646 C   0  0  0  0  0  0  0  0  0  0  0  0
    4.2610    0.1932    4.1245 C   0  0  0  0  0  0  0  0  0  0  0  0
   -5.5256   -2.2304    2.1230 C   0  0  0  0  0  0  0  0  0  0  0  0
   -5.4973   -3.3443   -0.7033 C   0  0  0  0  0  0  0  0  0  0  0  0
   -2.9654   -3.4303    0.9793 C   0  0  0  0  0  0  0  0  0  0  0  0
   -4.4368    3.8945   -1.0780 C   0  0  0  0  0  0  0  0  0  0  0  0
   -5.9858    1.2699   -0.8851 C   0  0  0  0  0  0  0  0  0  0  0  0
   -5.2233    2.7807    1.6396 C   0  0  0  0  0  0  0  0  0  0  0  0
    0.8482    1.2565   -1.3738 H   0  0  0  0  0  0  0  0  0  0  0  0
    2.9385    1.6487    0.2463 H   0  0  0  0  0  0  0  0  0  0  0  0
    2.3101    0.1536    1.9470 H   0  0  0  0  0  0  0  0  0  0  0  0
    2.6306   -2.1287   -0.0691 H   0  0  0  0  0  0  0  0  0  0  0  0
    2.1956   -2.3136    1.6062 H   0  0  0  0  0  0  0  0  0  0  0  0
   -1.5902   -1.4866   -1.0471 H   0  0  0  0  0  0  0  0  0  0  0  0
   -1.4360    0.2308   -1.3287 H   0  0  0  0  0  0  0  0  0  0  0  0
   -0.1381    4.8209   -1.1295 H   0  0  0  0  0  0  0  0  0  0  0  0
    1.1497    3.7833   -1.7027 H   0  0  0  0  0  0  0  0  0  0  0  0
   -0.5292    3.1977   -1.7018 H   0  0  0  0  0  0  0  0  0  0  0  0
    2.3240    3.2224    2.1757 H   0  0  0  0  0  0  0  0  0  0  0  0
    2.8531    3.7673    0.5794 H   0  0  0  0  0  0  0  0  0  0  0  0
    1.9118    4.8390    1.5948 H   0  0  0  0  0  0  0  0  0  0  0  0
   -1.9680    3.6274    1.1966 H   0  0  0  0  0  0  0  0  0  0  0  0
   -0.9750    3.4659    2.6544 H   0  0  0  0  0  0  0  0  0  0  0  0
   -0.9150    4.9566    1.6952 H   0  0  0  0  0  0  0  0  0  0  0  0
    5.9304    0.6851   -2.9123 H   0  0  0  0  0  0  0  0  0  0  0  0
    4.8052   -0.1531   -3.9973 H   0  0  0  0  0  0  0  0  0  0  0  0
    5.2451    1.5372   -4.3094 H   0  0  0  0  0  0  0  0  0  0  0  0
    4.6360    2.9137   -0.8040 H   0  0  0  0  0  0  0  0  0  0  0  0
    4.6406    3.6073   -2.4253 H   0  0  0  0  0  0  0  0  0  0  0  0
    3.1644    3.6485   -1.4900 H   0  0  0  0  0  0  0  0  0  0  0  0
    1.3154    2.2583   -3.1520 H   0  0  0  0  0  0  0  0  0  0  0  0
    2.4099    2.1001   -4.5095 H   0  0  0  0  0  0  0  0  0  0  0  0
    1.6436    0.6606   -3.8354 H   0  0  0  0  0  0  0  0  0  0  0  0
   -0.3133   -3.4977    0.0426 H   0  0  0  0  0  0  0  0  0  0  0  0
   -0.0380   -4.8451   -1.0416 H   0  0  0  0  0  0  0  0  0  0  0  0
    1.3430   -4.0355   -0.3238 H   0  0  0  0  0  0  0  0  0  0  0  0
    1.6686   -2.9260   -4.4014 H   0  0  0  0  0  0  0  0  0  0  0  0
    2.6171   -3.5903   -3.0580 H   0  0  0  0  0  0  0  0  0  0  0  0
    1.2913   -4.5375   -3.7609 H   0  0  0  0  0  0  0  0  0  0  0  0
   -1.5513   -1.7213   -3.3961 H   0  0  0  0  0  0  0  0  0  0  0  0
   -1.3211   -3.3962   -3.8986 H   0  0  0  0  0  0  0  0  0  0  0  0
   -2.0733   -3.0672   -2.3469 H   0  0  0  0  0  0  0  0  0  0  0  0
    7.0618   -0.1726    2.5013 H   0  0  0  0  0  0  0  0  0  0  0  0
    6.9847   -1.4930    3.6847 H   0  0  0  0  0  0  0  0  0  0  0  0
    6.9255   -1.8529    1.9478 H   0  0  0  0  0  0  0  0  0  0  0  0
    2.9964   -2.6292    3.5252 H   0  0  0  0  0  0  0  0  0  0  0  0
    4.0765   -3.3708    2.3045 H   0  0  0  0  0  0  0  0  0  0  0  0
    4.6155   -3.1481    3.9699 H   0  0  0  0  0  0  0  0  0  0  0  0
    3.1749    0.2457    4.2424 H   0  0  0  0  0  0  0  0  0  0  0  0
    4.6923   -0.1292    5.0768 H   0  0  0  0  0  0  0  0  0  0  0  0
    4.6319    1.1978    3.9011 H   0  0  0  0  0  0  0  0  0  0  0  0
   -4.9202   -1.9422    2.9861 H   0  0  0  0  0  0  0  0  0  0  0  0
   -6.3106   -1.4816    1.9825 H   0  0  0  0  0  0  0  0  0  0  0  0
   -6.0040   -3.1861    2.3582 H   0  0  0  0  0  0  0  0  0  0  0  0
   -4.9160   -3.4959   -1.6175 H   0  0  0  0  0  0  0  0  0  0  0  0
   -5.7859   -4.3226   -0.3087 H   0  0  0  0  0  0  0  0  0  0  0  0
   -6.4052   -2.7897   -0.9575 H   0  0  0  0  0  0  0  0  0  0  0  0
   -2.4775   -3.7386    0.0536 H   0  0  0  0  0  0  0  0  0  0  0  0
   -2.2553   -2.8822    1.6030 H   0  0  0  0  0  0  0  0  0  0  0  0
   -3.2632   -4.3351    1.5178 H   0  0  0  0  0  0  0  0  0  0  0  0
   -3.6933    4.5473   -0.6115 H   0  0  0  0  0  0  0  0  0  0  0  0
   -4.1077    3.6725   -2.0973 H   0  0  0  0  0  0  0  0  0  0  0  0
   -5.3858    4.4360   -1.1319 H   0  0  0  0  0  0  0  0  0  0  0  0
   -6.3215    0.4748   -0.2142 H   0  0  0  0  0  0  0  0  0  0  0  0
   -6.8532    1.8947   -1.1189 H   0  0  0  0  0  0  0  0  0  0  0  0
   -5.6309    0.8182   -1.8159 H   0  0  0  0  0  0  0  0  0  0  0  0
   -5.5536    1.9003    2.1971 H   0  0  0  0  0  0  0  0  0  0  0  0
   -4.4193    3.2685    2.1981 H   0  0  0  0  0  0  0  0  0  0  0  0
   -6.0670    3.4741    1.5733 H   0  0  0  0  0  0  0  0  0  0  0  0
  1 13  1  0  0  0  0
  1 14  1  0  0  0  0
  1 15  1  0  0  0  0
  1 16  2  0  0  0  0
  2  9  1  0  0  0  0
  2 23  1  0  0  0  0
  2 24  1  0  0  0  0
  2 25  1  0  0  0  0
  3 10  1  0  0  0  0
  3 26  1  0  0  0  0
  3 27  1  0  0  0  0
  3 28  1  0  0  0  0
  4 11  1  0  0  0  0
  4 29  1  0  0  0  0
  4 30  1  0  0  0  0
  4 31  1  0  0  0  0
  5 12  1  0  0  0  0
  5 32  1  0  0  0  0
  5 33  1  0  0  0  0
  5 34  1  0  0  0  0
  6 14  1  0  0  0  0
  6 35  1  0  0  0  0
  6 36  1  0  0  0  0
  6 37  1  0  0  0  0
  7 15  1  0  0  0  0
  7 38  1  0  0  0  0
  7 39  1  0  0  0  0
  7 40  1  0  0  0  0
  8 19  1  0  0  0  0
  8 21  1  0  0  0  0
  9 17  1  0  0  0  0
 10 18  1  0  0  0  0
 11 19  1  0  0  0  0
 12 20  1  0  0  0  0
 13 22  1  0  0  0  0
 17 18  1  0  0  0  0
 17 19  1  0  0  0  0
 17 41  1  0  0  0  0
 18 20  1  0  0  0  0
 18 42  1  0  0  0  0
 19 22  1  0  0  0  0
 20 21  1  0  0  0  0
 20 43  1  0  0  0  0
 21 44  1  0  0  0  0
 21 45  1  0  0  0  0
 22 46  1  0  0  0  0
 22 47  1  0  0  0  0
 23 48  1  0  0  0  0
 23 49  1  0  0  0  0
 23 50  1  0  0  0  0
 24 51  1  0  0  0  0
 24 52  1  0  0  0  0
 24 53  1  0  0  0  0
 25 54  1  0  0  0  0
 25 55  1  0  0  0  0
 25 56  1  0  0  0  0
 26 57  1  0  0  0  0
 26 58  1  0  0  0  0
 26 59  1  0  0  0  0
 27 60  1  0  0  0  0
 27 61  1  0  0  0  0
 27 62  1  0  0  0  0
 28 63  1  0  0  0  0
 28 64  1  0  0  0  0
 28 65  1  0  0  0  0
 29 66  1  0  0  0  0
 29 67  1  0  0  0  0
 29 68  1  0  0  0  0
 30 69  1  0  0  0  0
 30 70  1  0  0  0  0
 30 71  1  0  0  0  0
 31 72  1  0  0  0  0
 31 73  1  0  0  0  0
 31 74  1  0  0  0  0
 32 75  1  0  0  0  0
 32 76  1  0  0  0  0
 32 77  1  0  0  0  0
 33 78  1  0  0  0  0
 33 79  1  0  0  0  0
 33 80  1  0  0  0  0
 34 81  1  0  0  0  0
 34 82  1  0  0  0  0
 34 83  1  0  0  0  0
 35 84  1  0  0  0  0
 35 85  1  0  0  0  0
 35 86  1  0  0  0  0
 36 87  1  0  0  0  0
 36 88  1  0  0  0  0
 36 89  1  0  0  0  0
 37 90  1  0  0  0  0
 37 91  1  0  0  0  0
 37 92  1  0  0  0  0
 38 93  1  0  0  0  0
 38 94  1  0  0  0  0
 38 95  1  0  0  0  0
 39 96  1  0  0  0  0
 39 97  1  0  0  0  0
 39 98  1  0  0  0  0
 40 99  1  0  0  0  0
 40100  1  0  0  0  0
 40101  1  0  0  0  0
M  END
> <PUBCHEM_COMPOUND_CID>
612386

> <PUBCHEM_CONFORMER_RMSD>
1.6

> <PUBCHEM_CONFORMER_DIVERSEORDER>
2
15
8
28
9
3
11
32
29
21
13
27
25
22
12
4
30
24
18
23
10
5
14
31
6
16
17
20
19
26
1
7

> <PUBCHEM_MMFF94_PARTIAL_CHARGES>
40
1 1.51
10 -0.58
11 -0.58
12 -0.58
13 -0.55
14 -0.57
15 -0.57
16 -0.7
17 0.28
18 0.28
19 0.56
2 0.54
20 0.28
21 0.28
22 0.28
23 -0.08
24 -0.08
25 -0.08
26 -0.08
27 -0.08
28 -0.08
29 -0.08
3 0.54
30 -0.08
31 -0.08
32 -0.08
33 -0.08
34 -0.08
35 -0.08
36 -0.08
37 -0.08
38 -0.08
39 -0.08
4 0.54
40 -0.08
5 0.54
6 0.54
7 0.54
8 -0.56
9 -0.58

> <PUBCHEM_EFFECTIVE_ROTOR_COUNT>
16.2

> <PUBCHEM_PHARMACOPHORE_FEATURES>
3
1 16 acceptor
1 8 acceptor
6 8 17 18 19 20 21 rings

> <PUBCHEM_HEAVY_ATOM_COUNT>
40

> <PUBCHEM_ATOM_DEF_STEREO_COUNT>
0

> <PUBCHEM_ATOM_UDEF_STEREO_COUNT>
4

> <PUBCHEM_BOND_DEF_STEREO_COUNT>
0

> <PUBCHEM_BOND_UDEF_STEREO_COUNT>
0

> <PUBCHEM_ISOTOPIC_ATOM_COUNT>
0

> <PUBCHEM_COMPONENT_COUNT>
1

> <PUBCHEM_CACTVS_TAUTO_COUNT>
1

> <PUBCHEM_CONFORMER_ID>
0009582200000002

> <PUBCHEM_MMFF94_ENERGY>
94.4814

> <PUBCHEM_FEATURE_SELFOVERLAP>
15.223

> <PUBCHEM_SHAPE_FINGERPRINT>
10439779 11 18340759339617160681
12422481 6 18119793730129826752
12633046 712 17895743114801626647
12788726 201 18263655116257375395
13726171 33 18195837208263861145
140371 6 18198908002743461889
14068700 675 17895462658153937968
15219462 58 17679308730287239235
15219648 60 18412270553506172734
15297060 5 17701287770105757564
15324884 4 17989214732524546439
15775530 1 17337304169868351714
15815584 197 17703506623230135247
15968369 26 18198625441112943927
17809404 112 17917426480781545921
18681886 176 17771366419291055990
19315092 285 17313101986000211778
19319366 153 17754181091731143452
20600515 1 18043528313634699549
20764821 26 17621057364842467389
21033648 29 17346884450688113907
22393880 68 18338812211613981349
22440779 20 14997110368709551366
23559900 14 18126299536157756223
3380486 77 17824829944563802153
513532 50 17131550514226276828

> <PUBCHEM_SHAPE_MULTIPOLES>
883.48
12.69
5.87
4.18
5.9
1.29
0.61
-0.85
-6.77
4.23
1.2
-7.43
-1.72
-2.28

> <PUBCHEM_SHAPE_SELFOVERLAP>
1609.932

> <PUBCHEM_SHAPE_VOLUME>
567.5

> <PUBCHEM_COORDINATE_TYPE>
2
5
10