6399441
  -OEChem-05072106003D

 48 49  0     1  0  0  0  0  0999 V2000
    2.7803    1.3248    1.4369 O   0  0  0  0  0  0  0  0  0  0  0  0
    4.4714    1.6964   -0.7973 O   0  0  0  0  0  0  0  0  0  0  0  0
    1.0863    2.0820   -1.7124 O   0  0  0  0  0  0  0  0  0  0  0  0
    5.6640    4.1126    0.0742 O   0  0  0  0  0  0  0  0  0  0  0  0
    0.4927   -0.6409    0.4226 N   0  0  0  0  0  0  0  0  0  0  0  0
    1.6862   -1.2529    0.3093 N   0  0  0  0  0  0  0  0  0  0  0  0
   -1.9780    0.7325    0.0144 N   0  0  0  0  0  0  0  0  0  0  0  0
   -3.0528    1.5411    0.0802 N   0  0  0  0  0  0  0  0  0  0  0  0
    2.4011    2.1341    0.3156 C   0  0  1  0  0  0  0  0  0  0  0  0
    3.6692    2.7661   -0.2800 C   0  0  1  0  0  0  0  0  0  0  0  0
    1.5902    1.2685   -0.6579 C   0  0  1  0  0  0  0  0  0  0  0  0
    4.5216    3.5550    0.7133 C   0  0  0  0  0  0  0  0  0  0  0  0
    0.4021    0.5767   -0.0131 C   0  0  0  0  0  0  0  0  0  0  0  0
   -0.8627    1.3707    0.0519 C   0  0  0  0  0  0  0  0  0  0  0  0
    1.7592   -2.6457    0.1459 C   0  0  0  0  0  0  0  0  0  0  0  0
   -4.3520    1.0115    0.0517 C   0  0  0  0  0  0  0  0  0  0  0  0
    3.0005   -3.2692    0.0183 C   0  0  0  0  0  0  0  0  0  0  0  0
    0.5901   -3.4058    0.1108 C   0  0  0  0  0  0  0  0  0  0  0  0
    3.0727   -4.6526   -0.1447 C   0  0  0  0  0  0  0  0  0  0  0  0
    0.6625   -4.7893   -0.0521 C   0  0  0  0  0  0  0  0  0  0  0  0
   -5.4545    1.8631    0.1238 C   0  0  0  0  0  0  0  0  0  0  0  0
   -4.5410   -0.3670   -0.0482 C   0  0  0  0  0  0  0  0  0  0  0  0
    1.9038   -5.4126   -0.1798 C   0  0  0  0  0  0  0  0  0  0  0  0
   -6.7458    1.3364    0.0963 C   0  0  0  0  0  0  0  0  0  0  0  0
   -5.8324   -0.8937   -0.0760 C   0  0  0  0  0  0  0  0  0  0  0  0
   -6.9347   -0.0419   -0.0037 C   0  0  0  0  0  0  0  0  0  0  0  0
    1.7714    2.9464    0.6999 H   0  0  0  0  0  0  0  0  0  0  0  0
    3.4084    3.4051   -1.1314 H   0  0  0  0  0  0  0  0  0  0  0  0
    2.2398    0.5368   -1.1461 H   0  0  0  0  0  0  0  0  0  0  0  0
    3.9396    4.3702    1.1544 H   0  0  0  0  0  0  0  0  0  0  0  0
    4.8884    2.9043    1.5140 H   0  0  0  0  0  0  0  0  0  0  0  0
    1.9722    1.1032    1.9297 H   0  0  0  0  0  0  0  0  0  0  0  0
    5.2677    2.0941   -1.1892 H   0  0  0  0  0  0  0  0  0  0  0  0
    0.7161    1.4900   -2.3898 H   0  0  0  0  0  0  0  0  0  0  0  0
   -0.7495    2.4652    0.1340 H   0  0  0  0  0  0  0  0  0  0  0  0
    6.1605    4.6013    0.7527 H   0  0  0  0  0  0  0  0  0  0  0  0
    2.5550   -0.7380    0.3876 H   0  0  0  0  0  0  0  0  0  0  0  0
   -2.9466    2.5470    0.1526 H   0  0  0  0  0  0  0  0  0  0  0  0
    3.9188   -2.6881    0.0436 H   0  0  0  0  0  0  0  0  0  0  0  0
   -0.3939   -2.9548    0.2071 H   0  0  0  0  0  0  0  0  0  0  0  0
    4.0391   -5.1381   -0.2442 H   0  0  0  0  0  0  0  0  0  0  0  0
   -0.2475   -5.3817   -0.0796 H   0  0  0  0  0  0  0  0  0  0  0  0
   -5.3209    2.9391    0.2021 H   0  0  0  0  0  0  0  0  0  0  0  0
   -3.7061   -1.0602   -0.1063 H   0  0  0  0  0  0  0  0  0  0  0  0
    1.9599   -6.4898   -0.3066 H   0  0  0  0  0  0  0  0  0  0  0  0
   -7.6041    1.9994    0.1525 H   0  0  0  0  0  0  0  0  0  0  0  0
   -5.9801   -1.9669   -0.1538 H   0  0  0  0  0  0  0  0  0  0  0  0
   -7.9402   -0.4520   -0.0253 H   0  0  0  0  0  0  0  0  0  0  0  0
  1  9  1  0  0  0  0
  1 32  1  0  0  0  0
  2 10  1  0  0  0  0
  2 33  1  0  0  0  0
  3 11  1  0  0  0  0
  3 34  1  0  0  0  0
  4 12  1  0  0  0  0
  4 36  1  0  0  0  0
  5  6  1  0  0  0  0
  5 13  2  0  0  0  0
  6 15  1  0  0  0  0
  6 37  1  0  0  0  0
  7  8  1  0  0  0  0
  7 14  2  0  0  0  0
  8 16  1  0  0  0  0
  8 38  1  0  0  0  0
  9 10  1  0  0  0  0
  9 11  1  0  0  0  0
  9 27  1  0  0  0  0
 10 12  1  0  0  0  0
 10 28  1  0  0  0  0
 11 13  1  0  0  0  0
 11 29  1  0  0  0  0
 12 30  1  0  0  0  0
 12 31  1  0  0  0  0
 13 14  1  0  0  0  0
 14 35  1  0  0  0  0
 15 17  2  0  0  0  0
 15 18  1  0  0  0  0
 16 21  2  0  0  0  0
 16 22  1  0  0  0  0
 17 19  1  0  0  0  0
 17 39  1  0  0  0  0
 18 20  2  0  0  0  0
 18 40  1  0  0  0  0
 19 23  2  0  0  0  0
 19 41  1  0  0  0  0
 20 23  1  0  0  0  0
 20 42  1  0  0  0  0
 21 24  1  0  0  0  0
 21 43  1  0  0  0  0
 22 25  2  0  0  0  0
 22 44  1  0  0  0  0
 23 45  1  0  0  0  0
 24 26  2  0  0  0  0
 24 46  1  0  0  0  0
 25 26  1  0  0  0  0
 25 47  1  0  0  0  0
 26 48  1  0  0  0  0
M  END
> <PUBCHEM_COMPOUND_CID>
6399441

> <PUBCHEM_CONFORMER_RMSD>
1

> <PUBCHEM_CONFORMER_DIVERSEORDER>
3
90
17
109
25
33
54
39
42
115
48
83
10
100
112
99
118
142
110
111
121
66
65
85
9
86
45
134
113
84
119
104
55
128
1
34
20
31
58
129
98
59
130
41
47
89
53
131
132
139
78
13
52
69
97
125
101
63
151
102
70
62
7
64
36
18
135
24
46
93
43
40
77
2
11
127
106
138
57
116
124
137
140
71
50
120
94
82
88
21
26
60
28
51
147
144
136
30
27
152
67
122
75
16
15
73
143
79
72
4
44
150
105
56
37
22
141
8
123
80
117
61
126
23
76
92
103
133
149
68
108
148
5
145
32
81
91
29
38
153
12
107
6
19
87
35
49
114
74
95
14
96
146

> <PUBCHEM_MMFF94_PARTIAL_CHARGES>
43
1 -0.68
10 0.28
11 0.34
12 0.28
13 0.39
14 0.39
15 0.1
16 0.1
17 -0.15
18 -0.15
19 -0.15
2 -0.68
20 -0.15
21 -0.15
22 -0.15
23 -0.15
24 -0.15
25 -0.15
26 -0.15
3 -0.68
32 0.4
33 0.4
34 0.4
35 0.06
36 0.4
37 0.4
38 0.4
39 0.15
4 -0.68
40 0.15
41 0.15
42 0.15
43 0.15
44 0.15
45 0.15
46 0.15
47 0.15
48 0.15
5 -0.49
6 -0.46
7 -0.49
8 -0.46
9 0.28

> <PUBCHEM_EFFECTIVE_ROTOR_COUNT>
9

> <PUBCHEM_PHARMACOPHORE_FEATURES>
14
1 1 acceptor
1 1 donor
1 2 acceptor
1 2 donor
1 3 acceptor
1 3 donor
1 4 acceptor
1 4 donor
1 5 acceptor
1 6 donor
1 7 acceptor
1 8 donor
6 15 17 18 19 20 23 rings
6 16 21 22 24 25 26 rings

> <PUBCHEM_HEAVY_ATOM_COUNT>
26

> <PUBCHEM_ATOM_DEF_STEREO_COUNT>
0

> <PUBCHEM_ATOM_UDEF_STEREO_COUNT>
3

> <PUBCHEM_BOND_DEF_STEREO_COUNT>
2

> <PUBCHEM_BOND_UDEF_STEREO_COUNT>
0

> <PUBCHEM_ISOTOPIC_ATOM_COUNT>
0

> <PUBCHEM_COMPONENT_COUNT>
1

> <PUBCHEM_CACTVS_TAUTO_COUNT>
1

> <PUBCHEM_CONFORMER_ID>
0061A5D100000003

> <PUBCHEM_MMFF94_ENERGY>
83.4196

> <PUBCHEM_FEATURE_SELFOVERLAP>
71.069

> <PUBCHEM_SHAPE_FINGERPRINT>
10319688 45 17257933689434290034
10411042 1 17834114148040896594
11135926 11 18410284835701328653
11136131 41 18262226819792149418
11719270 70 18410847780732158505
12969540 37 18263924332663985903
13533116 47 18341891845531610545
13692114 37 18267011933219266866
138480 1 18194402182422508362
13955234 65 18411702045516586345
14790565 3 18194401319017621606
14863182 85 18334301988851316621
15352361 1 18050286964894116451
15775530 1 17680690550269089876
15927050 60 18269836569974929486
16993438 75 17901670693793793467
17492 89 18338517427182024867
17859628 70 18339079281227806091
18681886 176 18116996795660918565
19319366 153 18271802462378903749
19427546 62 18266179615970792484
20286276 3 18193841445010396697
21033648 29 18126278890229365824
21049683 271 18190755132866138502
21796203 349 17691445968711830851
23559900 14 18194392295987834081
249999 5 18411697669103115080
3421961 26 18267019458238982123
38695281 34 18337673130161771970
4017518 198 18338810030482154206
4073 2 18337396032690490785
4403749 210 18048028872541899145
57634706 280 17772460429219252969
59755656 215 18408892827678172829
59755656 520 18267295629021078196
6025842 7 18410855439048938327
6669772 16 18341618156987749038
6700243 42 16691909506356412590
77188 2 17907016175719502334
9658208 31 18055069028604706800
9777508 108 17693087878795044344
9981440 41 18264211490230251489

> <PUBCHEM_SHAPE_MULTIPOLES>
491.67
14.06
7.31
0.82
28.21
8.27
-0.08
-8.92
0.43
-16.1
-0.05
-0.47
-0.41
0.2

> <PUBCHEM_SHAPE_SELFOVERLAP>
1022.799

> <PUBCHEM_SHAPE_VOLUME>
277.1

> <PUBCHEM_COORDINATE_TYPE>
2
5
10