6427431
  -OEChem-05072106003D

 84 84  0     1  0  0  0  0  0999 V2000
   -0.0893   -1.3583    3.3958 Si  0  0  0  0  0  0  0  0  0  0  0  0
    0.9095    3.4279    0.3375 Si  0  0  0  0  0  0  0  0  0  0  0  0
   -0.3110   -3.5316   -1.4750 Si  0  0  0  0  0  0  0  0  0  0  0  0
    4.5507    0.2609   -1.0569 Si  0  0  0  0  0  0  0  0  0  0  0  0
   -4.7831    1.2291   -0.8919 Si  0  0  0  0  0  0  0  0  0  0  0  0
   -0.4483    0.9650   -0.5750 O   0  0  0  0  0  0  0  0  0  0  0  0
   -0.0453   -0.2075    2.1709 O   0  0  0  0  0  0  0  0  0  0  0  0
    1.1400    1.8777    0.9256 O   0  0  0  0  0  0  0  0  0  0  0  0
    0.4097   -2.1747   -0.7949 O   0  0  0  0  0  0  0  0  0  0  0  0
    3.1538    0.8225   -0.3132 O   0  0  0  0  0  0  0  0  0  0  0  0
   -3.1691    0.8344   -1.1335 O   0  0  0  0  0  0  0  0  0  0  0  0
    0.6024   -0.5094    0.9357 C   0  0  2  0  0  0  0  0  0  0  0  0
    0.7968    0.7623    0.1097 C   0  0  1  0  0  0  0  0  0  0  0  0
   -0.3388   -1.3422    0.0852 C   0  0  1  0  0  0  0  0  0  0  0  0
   -1.1050   -0.3080   -0.7446 C   0  0  1  0  0  0  0  0  0  0  0  0
    1.8980    0.6350   -0.9431 C   0  0  0  0  0  0  0  0  0  0  0  0
   -2.5556   -0.1476   -0.3149 C   0  0  0  0  0  0  0  0  0  0  0  0
    1.5631   -2.2586    3.4932 C   0  0  0  0  0  0  0  0  0  0  0  0
   -1.4302   -2.6382    3.0751 C   0  0  0  0  0  0  0  0  0  0  0  0
   -0.4136   -0.5571    5.0663 C   0  0  0  0  0  0  0  0  0  0  0  0
    0.8250    4.6837    1.7353 C   0  0  0  0  0  0  0  0  0  0  0  0
    2.2939    3.9281   -0.8338 C   0  0  0  0  0  0  0  0  0  0  0  0
   -0.7147    3.5063   -0.6142 C   0  0  0  0  0  0  0  0  0  0  0  0
   -1.3972   -4.3904   -0.1971 C   0  0  0  0  0  0  0  0  0  0  0  0
   -1.3960   -3.0616   -2.9378 C   0  0  0  0  0  0  0  0  0  0  0  0
    0.9826   -4.7651   -2.0610 C   0  0  0  0  0  0  0  0  0  0  0  0
    6.0497    0.6551    0.0146 C   0  0  0  0  0  0  0  0  0  0  0  0
    4.8036    1.0775   -2.7325 C   0  0  0  0  0  0  0  0  0  0  0  0
    4.4866   -1.6028   -1.3027 C   0  0  0  0  0  0  0  0  0  0  0  0
   -5.3089    2.5548   -2.1233 C   0  0  0  0  0  0  0  0  0  0  0  0
   -5.0661    1.9017    0.8419 C   0  0  0  0  0  0  0  0  0  0  0  0
   -5.8932   -0.2686   -1.1416 C   0  0  0  0  0  0  0  0  0  0  0  0
    1.5742   -0.9829    1.1177 H   0  0  0  0  0  0  0  0  0  0  0  0
   -1.0295   -1.9402    0.6720 H   0  0  0  0  0  0  0  0  0  0  0  0
   -1.0669   -0.5085   -1.8198 H   0  0  0  0  0  0  0  0  0  0  0  0
    1.8395   -0.3361   -1.4463 H   0  0  0  0  0  0  0  0  0  0  0  0
    1.7721    1.3665   -1.7482 H   0  0  0  0  0  0  0  0  0  0  0  0
   -2.5938    0.1774    0.7327 H   0  0  0  0  0  0  0  0  0  0  0  0
   -3.0782   -1.1069   -0.4140 H   0  0  0  0  0  0  0  0  0  0  0  0
    1.7372   -2.8564    2.5937 H   0  0  0  0  0  0  0  0  0  0  0  0
    1.5777   -2.9323    4.3552 H   0  0  0  0  0  0  0  0  0  0  0  0
    2.3843   -1.5442    3.6017 H   0  0  0  0  0  0  0  0  0  0  0  0
   -1.7256   -3.1130    4.0160 H   0  0  0  0  0  0  0  0  0  0  0  0
   -1.0626   -3.4248    2.4179 H   0  0  0  0  0  0  0  0  0  0  0  0
   -2.3200   -2.1790    2.6354 H   0  0  0  0  0  0  0  0  0  0  0  0
    0.3664    0.1739    5.2987 H   0  0  0  0  0  0  0  0  0  0  0  0
   -0.4278   -1.3102    5.8597 H   0  0  0  0  0  0  0  0  0  0  0  0
   -1.3783   -0.0415    5.0628 H   0  0  0  0  0  0  0  0  0  0  0  0
    0.0057    4.4416    2.4186 H   0  0  0  0  0  0  0  0  0  0  0  0
    0.6589    5.6904    1.3408 H   0  0  0  0  0  0  0  0  0  0  0  0
    1.7588    4.6862    2.3050 H   0  0  0  0  0  0  0  0  0  0  0  0
    2.2725    5.0117   -0.9880 H   0  0  0  0  0  0  0  0  0  0  0  0
    2.1968    3.4614   -1.8162 H   0  0  0  0  0  0  0  0  0  0  0  0
    3.2698    3.6706   -0.4129 H   0  0  0  0  0  0  0  0  0  0  0  0
   -1.5426    3.0779   -0.0421 H   0  0  0  0  0  0  0  0  0  0  0  0
   -0.9647    4.5596   -0.7848 H   0  0  0  0  0  0  0  0  0  0  0  0
   -0.6490    3.0468   -1.6045 H   0  0  0  0  0  0  0  0  0  0  0  0
   -0.7955   -4.7145    0.6551 H   0  0  0  0  0  0  0  0  0  0  0  0
   -1.8509   -5.2827   -0.6404 H   0  0  0  0  0  0  0  0  0  0  0  0
   -2.2093   -3.7466    0.1498 H   0  0  0  0  0  0  0  0  0  0  0  0
   -0.8282   -2.4722   -3.6636 H   0  0  0  0  0  0  0  0  0  0  0  0
   -1.7675   -3.9595   -3.4406 H   0  0  0  0  0  0  0  0  0  0  0  0
   -2.2599   -2.4749   -2.6132 H   0  0  0  0  0  0  0  0  0  0  0  0
    1.6258   -4.3129   -2.8217 H   0  0  0  0  0  0  0  0  0  0  0  0
    1.6118   -5.0862   -1.2256 H   0  0  0  0  0  0  0  0  0  0  0  0
    0.5053   -5.6493   -2.4935 H   0  0  0  0  0  0  0  0  0  0  0  0
    6.1384    1.7350    0.1648 H   0  0  0  0  0  0  0  0  0  0  0  0
    6.9673    0.2951   -0.4598 H   0  0  0  0  0  0  0  0  0  0  0  0
    5.9558    0.1770    0.9940 H   0  0  0  0  0  0  0  0  0  0  0  0
    5.7315    0.7285   -3.1952 H   0  0  0  0  0  0  0  0  0  0  0  0
    4.8598    2.1646   -2.6240 H   0  0  0  0  0  0  0  0  0  0  0  0
    3.9738    0.8415   -3.4051 H   0  0  0  0  0  0  0  0  0  0  0  0
    4.3102   -2.1086   -0.3488 H   0  0  0  0  0  0  0  0  0  0  0  0
    5.4309   -1.9683   -1.7169 H   0  0  0  0  0  0  0  0  0  0  0  0
    3.6826   -1.8783   -1.9913 H   0  0  0  0  0  0  0  0  0  0  0  0
   -5.1849    2.1951   -3.1489 H   0  0  0  0  0  0  0  0  0  0  0  0
   -6.3591    2.8228   -1.9753 H   0  0  0  0  0  0  0  0  0  0  0  0
   -4.7009    3.4555   -1.9976 H   0  0  0  0  0  0  0  0  0  0  0  0
   -6.1090    2.2059    0.9710 H   0  0  0  0  0  0  0  0  0  0  0  0
   -4.4282    2.7716    1.0239 H   0  0  0  0  0  0  0  0  0  0  0  0
   -4.8351    1.1420    1.5943 H   0  0  0  0  0  0  0  0  0  0  0  0
   -5.7496   -0.6899   -2.1409 H   0  0  0  0  0  0  0  0  0  0  0  0
   -6.9454    0.0105   -1.0334 H   0  0  0  0  0  0  0  0  0  0  0  0
   -5.6674   -1.0451   -0.4050 H   0  0  0  0  0  0  0  0  0  0  0  0
  1  7  1  0  0  0  0
  1 18  1  0  0  0  0
  1 19  1  0  0  0  0
  1 20  1  0  0  0  0
  2  8  1  0  0  0  0
  2 21  1  0  0  0  0
  2 22  1  0  0  0  0
  2 23  1  0  0  0  0
  3  9  1  0  0  0  0
  3 24  1  0  0  0  0
  3 25  1  0  0  0  0
  3 26  1  0  0  0  0
  4 10  1  0  0  0  0
  4 27  1  0  0  0  0
  4 28  1  0  0  0  0
  4 29  1  0  0  0  0
  5 11  1  0  0  0  0
  5 30  1  0  0  0  0
  5 31  1  0  0  0  0
  5 32  1  0  0  0  0
  6 13  1  0  0  0  0
  6 15  1  0  0  0  0
  7 12  1  0  0  0  0
  8 13  1  0  0  0  0
  9 14  1  0  0  0  0
 10 16  1  0  0  0  0
 11 17  1  0  0  0  0
 12 13  1  0  0  0  0
 12 14  1  0  0  0  0
 12 33  1  0  0  0  0
 13 16  1  0  0  0  0
 14 15  1  0  0  0  0
 14 34  1  0  0  0  0
 15 17  1  0  0  0  0
 15 35  1  0  0  0  0
 16 36  1  0  0  0  0
 16 37  1  0  0  0  0
 17 38  1  0  0  0  0
 17 39  1  0  0  0  0
 18 40  1  0  0  0  0
 18 41  1  0  0  0  0
 18 42  1  0  0  0  0
 19 43  1  0  0  0  0
 19 44  1  0  0  0  0
 19 45  1  0  0  0  0
 20 46  1  0  0  0  0
 20 47  1  0  0  0  0
 20 48  1  0  0  0  0
 21 49  1  0  0  0  0
 21 50  1  0  0  0  0
 21 51  1  0  0  0  0
 22 52  1  0  0  0  0
 22 53  1  0  0  0  0
 22 54  1  0  0  0  0
 23 55  1  0  0  0  0
 23 56  1  0  0  0  0
 23 57  1  0  0  0  0
 24 58  1  0  0  0  0
 24 59  1  0  0  0  0
 24 60  1  0  0  0  0
 25 61  1  0  0  0  0
 25 62  1  0  0  0  0
 25 63  1  0  0  0  0
 26 64  1  0  0  0  0
 26 65  1  0  0  0  0
 26 66  1  0  0  0  0
 27 67  1  0  0  0  0
 27 68  1  0  0  0  0
 27 69  1  0  0  0  0
 28 70  1  0  0  0  0
 28 71  1  0  0  0  0
 28 72  1  0  0  0  0
 29 73  1  0  0  0  0
 29 74  1  0  0  0  0
 29 75  1  0  0  0  0
 30 76  1  0  0  0  0
 30 77  1  0  0  0  0
 30 78  1  0  0  0  0
 31 79  1  0  0  0  0
 31 80  1  0  0  0  0
 31 81  1  0  0  0  0
 32 82  1  0  0  0  0
 32 83  1  0  0  0  0
 32 84  1  0  0  0  0
M  END
> <PUBCHEM_COMPOUND_CID>
6427431

> <PUBCHEM_CONFORMER_RMSD>
1.2

> <PUBCHEM_CONFORMER_DIVERSEORDER>
1
2
3

> <PUBCHEM_MMFF94_PARTIAL_CHARGES>
32
1 0.54
10 -0.58
11 -0.58
12 0.28
13 0.56
14 0.28
15 0.28
16 0.28
17 0.28
18 -0.08
19 -0.08
2 0.54
20 -0.08
21 -0.08
22 -0.08
23 -0.08
24 -0.08
25 -0.08
26 -0.08
27 -0.08
28 -0.08
29 -0.08
3 0.54
30 -0.08
31 -0.08
32 -0.08
4 0.54
5 0.54
6 -0.56
7 -0.58
8 -0.58
9 -0.58

> <PUBCHEM_EFFECTIVE_ROTOR_COUNT>
13

> <PUBCHEM_PHARMACOPHORE_FEATURES>
2
1 6 acceptor
5 6 12 13 14 15 rings

> <PUBCHEM_HEAVY_ATOM_COUNT>
32

> <PUBCHEM_ATOM_DEF_STEREO_COUNT>
4

> <PUBCHEM_ATOM_UDEF_STEREO_COUNT>
0

> <PUBCHEM_BOND_DEF_STEREO_COUNT>
0

> <PUBCHEM_BOND_UDEF_STEREO_COUNT>
0

> <PUBCHEM_ISOTOPIC_ATOM_COUNT>
0

> <PUBCHEM_COMPONENT_COUNT>
1

> <PUBCHEM_CACTVS_TAUTO_COUNT>
1

> <PUBCHEM_CONFORMER_ID>
0062132700000001

> <PUBCHEM_MMFF94_ENERGY>
69.1942

> <PUBCHEM_FEATURE_SELFOVERLAP>
10.148

> <PUBCHEM_SHAPE_FINGERPRINT>
107951 10 17603877701415990326
11578080 2 16769846635237468507
11763715 3 15803545831755434130
12058002 1 17609819367757807316
12160290 23 15940616977091585274
12788726 201 18339362955655345568
13636023 20 17916861305818723007
13636023 51 14852427858513862233
15420108 30 17836318888013775977
15775530 1 17756440613543313776
18681886 176 18272074033688453133
19319366 153 17822280271836229106
20600515 1 17771589512946195568
229495 10 17618249615444473992
23558518 356 17684631513396127037
3027735 51 17913222966102808678
3178227 256 18341905108174336149
3380486 145 18124891294186784992
3380486 77 18201170888209902108
3493558 16 16917065581509504944
59755656 520 16877660184576285226

> <PUBCHEM_SHAPE_MULTIPOLES>
714.39
9.22
6.18
4.08
2.51
0.76
5.97
-6.06
-7.48
0.05
-1.65
0.16
3.34
0.61

> <PUBCHEM_SHAPE_SELFOVERLAP>
1302.662

> <PUBCHEM_SHAPE_VOLUME>
460.1

> <PUBCHEM_COORDINATE_TYPE>
2
5
10