6427424
  -OEChem-05072106003D

 84 84  0     1  0  0  0  0  0999 V2000
   -0.0232    0.0652   -3.4698 Si  0  0  0  0  0  0  0  0  0  0  0  0
    0.0361   -3.0822    2.3131 Si  0  0  0  0  0  0  0  0  0  0  0  0
    4.2575   -0.2256   -0.2286 Si  0  0  0  0  0  0  0  0  0  0  0  0
   -4.0419   -0.6226   -0.4856 Si  0  0  0  0  0  0  0  0  0  0  0  0
   -0.5595    4.1131    1.6542 Si  0  0  0  0  0  0  0  0  0  0  0  0
   -0.0292   -0.1771    1.1386 O   0  0  0  0  0  0  0  0  0  0  0  0
   -0.4129   -0.1899   -1.8580 O   0  0  0  0  0  0  0  0  0  0  0  0
    0.5182   -2.4421    0.8443 O   0  0  0  0  0  0  0  0  0  0  0  0
    2.7201   -0.8907   -0.2598 O   0  0  0  0  0  0  0  0  0  0  0  0
   -2.3766   -0.5455   -0.2829 O   0  0  0  0  0  0  0  0  0  0  0  0
    0.0793    2.5602    1.6227 O   0  0  0  0  0  0  0  0  0  0  0  0
    0.4573   -0.9576   -1.0374 C   0  0  2  0  0  0  0  0  0  0  0  0
   -0.1940   -1.3298    0.2964 C   0  0  2  0  0  0  0  0  0  0  0  0
    1.6067   -0.0683   -0.6002 C   0  0  1  0  0  0  0  0  0  0  0  0
    1.0754    0.6135    0.6596 C   0  0  1  0  0  0  0  0  0  0  0  0
   -1.6759   -1.6730    0.2133 C   0  0  0  0  0  0  0  0  0  0  0  0
    0.5569    2.0212    0.4021 C   0  0  0  0  0  0  0  0  0  0  0  0
    0.6961   -1.5116   -4.2093 C   0  0  0  0  0  0  0  0  0  0  0  0
    1.2588    1.4297   -3.6525 C   0  0  0  0  0  0  0  0  0  0  0  0
   -1.5444    0.5350   -4.4714 C   0  0  0  0  0  0  0  0  0  0  0  0
   -1.4583   -4.2067    2.1120 C   0  0  0  0  0  0  0  0  0  0  0  0
    1.4218   -4.0664    3.1192 C   0  0  0  0  0  0  0  0  0  0  0  0
   -0.4410   -1.6839    3.4825 C   0  0  0  0  0  0  0  0  0  0  0  0
    5.5100   -1.5489    0.2513 C   0  0  0  0  0  0  0  0  0  0  0  0
    4.7435    0.4494   -1.9156 C   0  0  0  0  0  0  0  0  0  0  0  0
    4.3734    1.1676    1.0299 C   0  0  0  0  0  0  0  0  0  0  0  0
   -4.6823    1.0181   -1.1552 C   0  0  0  0  0  0  0  0  0  0  0  0
   -4.9101   -0.9617    1.1484 C   0  0  0  0  0  0  0  0  0  0  0  0
   -4.5153   -1.9728   -1.7066 C   0  0  0  0  0  0  0  0  0  0  0  0
   -1.1058    4.5457    3.4049 C   0  0  0  0  0  0  0  0  0  0  0  0
   -2.0584    4.2540    0.5265 C   0  0  0  0  0  0  0  0  0  0  0  0
    0.7180    5.3836    1.1137 C   0  0  0  0  0  0  0  0  0  0  0  0
    0.7920   -1.8703   -1.5460 H   0  0  0  0  0  0  0  0  0  0  0  0
    1.9132    0.6740   -1.3339 H   0  0  0  0  0  0  0  0  0  0  0  0
    1.7903    0.6324    1.4853 H   0  0  0  0  0  0  0  0  0  0  0  0
   -1.8284   -2.5467   -0.4338 H   0  0  0  0  0  0  0  0  0  0  0  0
   -2.1157   -1.8689    1.1883 H   0  0  0  0  0  0  0  0  0  0  0  0
   -0.2657    1.9913   -0.3224 H   0  0  0  0  0  0  0  0  0  0  0  0
    1.3654    2.6446    0.0017 H   0  0  0  0  0  0  0  0  0  0  0  0
    1.6634   -1.7509   -3.7581 H   0  0  0  0  0  0  0  0  0  0  0  0
    0.8464   -1.3906   -5.2863 H   0  0  0  0  0  0  0  0  0  0  0  0
    0.0178   -2.3550   -4.0501 H   0  0  0  0  0  0  0  0  0  0  0  0
    1.2301    1.8350   -4.6689 H   0  0  0  0  0  0  0  0  0  0  0  0
    2.2675    1.0482   -3.4843 H   0  0  0  0  0  0  0  0  0  0  0  0
    1.0614    2.2501   -2.9567 H   0  0  0  0  0  0  0  0  0  0  0  0
   -2.3003   -0.2536   -4.4124 H   0  0  0  0  0  0  0  0  0  0  0  0
   -1.2840    0.6858   -5.5231 H   0  0  0  0  0  0  0  0  0  0  0  0
   -1.9837    1.4608   -4.0881 H   0  0  0  0  0  0  0  0  0  0  0  0
   -2.4062   -3.6789    2.2423 H   0  0  0  0  0  0  0  0  0  0  0  0
   -1.4283   -4.9992    2.8668 H   0  0  0  0  0  0  0  0  0  0  0  0
   -1.4529   -4.6835    1.1275 H   0  0  0  0  0  0  0  0  0  0  0  0
    1.1024   -4.4614    4.0881 H   0  0  0  0  0  0  0  0  0  0  0  0
    2.2993   -3.4324    3.2775 H   0  0  0  0  0  0  0  0  0  0  0  0
    1.7149   -4.9069    2.4834 H   0  0  0  0  0  0  0  0  0  0  0  0
   -1.3291   -1.1379    3.1559 H   0  0  0  0  0  0  0  0  0  0  0  0
   -0.6630   -2.0990    4.4712 H   0  0  0  0  0  0  0  0  0  0  0  0
    0.3867   -0.9784    3.6019 H   0  0  0  0  0  0  0  0  0  0  0  0
    5.2761   -1.9558    1.2395 H   0  0  0  0  0  0  0  0  0  0  0  0
    6.5203   -1.1306    0.2797 H   0  0  0  0  0  0  0  0  0  0  0  0
    5.4955   -2.3695   -0.4719 H   0  0  0  0  0  0  0  0  0  0  0  0
    4.1862    1.3622   -2.1420 H   0  0  0  0  0  0  0  0  0  0  0  0
    5.8101    0.6923   -1.9369 H   0  0  0  0  0  0  0  0  0  0  0  0
    4.5424   -0.2874   -2.6986 H   0  0  0  0  0  0  0  0  0  0  0  0
    3.7260    2.0042    0.7540 H   0  0  0  0  0  0  0  0  0  0  0  0
    4.0921    0.8166    2.0268 H   0  0  0  0  0  0  0  0  0  0  0  0
    5.4003    1.5425    1.0820 H   0  0  0  0  0  0  0  0  0  0  0  0
   -4.4568    1.8298   -0.4577 H   0  0  0  0  0  0  0  0  0  0  0  0
   -5.7656    0.9781   -1.3009 H   0  0  0  0  0  0  0  0  0  0  0  0
   -4.2119    1.2481   -2.1157 H   0  0  0  0  0  0  0  0  0  0  0  0
   -5.9960   -0.9478    1.0167 H   0  0  0  0  0  0  0  0  0  0  0  0
   -4.6429   -0.2018    1.8887 H   0  0  0  0  0  0  0  0  0  0  0  0
   -4.6257   -1.9416    1.5426 H   0  0  0  0  0  0  0  0  0  0  0  0
   -4.0198   -1.8098   -2.6682 H   0  0  0  0  0  0  0  0  0  0  0  0
   -5.5965   -1.9794   -1.8726 H   0  0  0  0  0  0  0  0  0  0  0  0
   -4.2203   -2.9563   -1.3296 H   0  0  0  0  0  0  0  0  0  0  0  0
   -0.2566    4.5001    4.0929 H   0  0  0  0  0  0  0  0  0  0  0  0
   -1.5245    5.5558    3.4387 H   0  0  0  0  0  0  0  0  0  0  0  0
   -1.8692    3.8431    3.7516 H   0  0  0  0  0  0  0  0  0  0  0  0
   -2.4925    5.2563    0.5868 H   0  0  0  0  0  0  0  0  0  0  0  0
   -2.8243    3.5290    0.8168 H   0  0  0  0  0  0  0  0  0  0  0  0
   -1.7805    4.0630   -0.5142 H   0  0  0  0  0  0  0  0  0  0  0  0
    1.6083    5.3251    1.7467 H   0  0  0  0  0  0  0  0  0  0  0  0
    0.3088    6.3955    1.1874 H   0  0  0  0  0  0  0  0  0  0  0  0
    1.0206    5.2112    0.0768 H   0  0  0  0  0  0  0  0  0  0  0  0
  1  7  1  0  0  0  0
  1 18  1  0  0  0  0
  1 19  1  0  0  0  0
  1 20  1  0  0  0  0
  2  8  1  0  0  0  0
  2 21  1  0  0  0  0
  2 22  1  0  0  0  0
  2 23  1  0  0  0  0
  3  9  1  0  0  0  0
  3 24  1  0  0  0  0
  3 25  1  0  0  0  0
  3 26  1  0  0  0  0
  4 10  1  0  0  0  0
  4 27  1  0  0  0  0
  4 28  1  0  0  0  0
  4 29  1  0  0  0  0
  5 11  1  0  0  0  0
  5 30  1  0  0  0  0
  5 31  1  0  0  0  0
  5 32  1  0  0  0  0
  6 13  1  0  0  0  0
  6 15  1  0  0  0  0
  7 12  1  0  0  0  0
  8 13  1  0  0  0  0
  9 14  1  0  0  0  0
 10 16  1  0  0  0  0
 11 17  1  0  0  0  0
 12 13  1  0  0  0  0
 12 14  1  0  0  0  0
 12 33  1  0  0  0  0
 13 16  1  0  0  0  0
 14 15  1  0  0  0  0
 14 34  1  0  0  0  0
 15 17  1  0  0  0  0
 15 35  1  0  0  0  0
 16 36  1  0  0  0  0
 16 37  1  0  0  0  0
 17 38  1  0  0  0  0
 17 39  1  0  0  0  0
 18 40  1  0  0  0  0
 18 41  1  0  0  0  0
 18 42  1  0  0  0  0
 19 43  1  0  0  0  0
 19 44  1  0  0  0  0
 19 45  1  0  0  0  0
 20 46  1  0  0  0  0
 20 47  1  0  0  0  0
 20 48  1  0  0  0  0
 21 49  1  0  0  0  0
 21 50  1  0  0  0  0
 21 51  1  0  0  0  0
 22 52  1  0  0  0  0
 22 53  1  0  0  0  0
 22 54  1  0  0  0  0
 23 55  1  0  0  0  0
 23 56  1  0  0  0  0
 23 57  1  0  0  0  0
 24 58  1  0  0  0  0
 24 59  1  0  0  0  0
 24 60  1  0  0  0  0
 25 61  1  0  0  0  0
 25 62  1  0  0  0  0
 25 63  1  0  0  0  0
 26 64  1  0  0  0  0
 26 65  1  0  0  0  0
 26 66  1  0  0  0  0
 27 67  1  0  0  0  0
 27 68  1  0  0  0  0
 27 69  1  0  0  0  0
 28 70  1  0  0  0  0
 28 71  1  0  0  0  0
 28 72  1  0  0  0  0
 29 73  1  0  0  0  0
 29 74  1  0  0  0  0
 29 75  1  0  0  0  0
 30 76  1  0  0  0  0
 30 77  1  0  0  0  0
 30 78  1  0  0  0  0
 31 79  1  0  0  0  0
 31 80  1  0  0  0  0
 31 81  1  0  0  0  0
 32 82  1  0  0  0  0
 32 83  1  0  0  0  0
 32 84  1  0  0  0  0
M  END
> <PUBCHEM_COMPOUND_CID>
6427424

> <PUBCHEM_CONFORMER_RMSD>
1.2

> <PUBCHEM_CONFORMER_DIVERSEORDER>
1
2

> <PUBCHEM_MMFF94_PARTIAL_CHARGES>
32
1 0.54
10 -0.58
11 -0.58
12 0.28
13 0.56
14 0.28
15 0.28
16 0.28
17 0.28
18 -0.08
19 -0.08
2 0.54
20 -0.08
21 -0.08
22 -0.08
23 -0.08
24 -0.08
25 -0.08
26 -0.08
27 -0.08
28 -0.08
29 -0.08
3 0.54
30 -0.08
31 -0.08
32 -0.08
4 0.54
5 0.54
6 -0.56
7 -0.58
8 -0.58
9 -0.58

> <PUBCHEM_EFFECTIVE_ROTOR_COUNT>
13

> <PUBCHEM_PHARMACOPHORE_FEATURES>
2
1 6 acceptor
5 6 12 13 14 15 rings

> <PUBCHEM_HEAVY_ATOM_COUNT>
32

> <PUBCHEM_ATOM_DEF_STEREO_COUNT>
4

> <PUBCHEM_ATOM_UDEF_STEREO_COUNT>
0

> <PUBCHEM_BOND_DEF_STEREO_COUNT>
0

> <PUBCHEM_BOND_UDEF_STEREO_COUNT>
0

> <PUBCHEM_ISOTOPIC_ATOM_COUNT>
0

> <PUBCHEM_COMPONENT_COUNT>
1

> <PUBCHEM_CACTVS_TAUTO_COUNT>
1

> <PUBCHEM_CONFORMER_ID>
0062132000000001

> <PUBCHEM_MMFF94_ENERGY>
63.4102

> <PUBCHEM_FEATURE_SELFOVERLAP>
10.148

> <PUBCHEM_SHAPE_FINGERPRINT>
11421498 54 18335143038490860147
11578080 2 17467940874116670609
12058002 1 18046943465596896622
12156800 1 16904973951849304399
12160290 23 17551846535094385984
12422481 6 17274558532810658997
12788726 201 18340216219511725672
133893 2 12369395457769976008
14028597 1 18263352591176228434
15420108 30 17185313141569700536
15775530 1 17760934343177095658
15815584 197 16033543452138455491
16090146 7 17534663440637833518
17974551 9 17975693110361375893
17980427 26 17833509708708079703
19319366 153 18044681732009041737
20600515 1 18188224185541802670
21033648 29 17824241912734549677
23558518 356 18122358882526228802
3493558 16 17679874978834326460
550186 7 17843971346934655652
57527306 92 18059561499728830441

> <PUBCHEM_SHAPE_MULTIPOLES>
714.39
7.47
6.15
4.93
1.99
6.25
-4.15
-2.36
-2.04
-1.79
8.71
-0.55
-0.33
-0.97

> <PUBCHEM_SHAPE_SELFOVERLAP>
1304.092

> <PUBCHEM_SHAPE_VOLUME>
459.8

> <PUBCHEM_COORDINATE_TYPE>
2
5
10