6451998
  -OEChem-05072106003D

 28 27  0     1  0  0  0  0  0999 V2000
    3.5702    0.4811    0.0001 P   0  0  0  0  0  0  0  0  0  0  0  0
   -1.9837    0.0518   -1.6720 O   0  0  0  0  0  0  0  0  0  0  0  0
   -2.2125   -2.0297    0.3341 O   0  0  0  0  0  0  0  0  0  0  0  0
   -3.5355    1.0006    1.5127 O   0  0  0  0  0  0  0  0  0  0  0  0
    2.3125   -0.5321   -0.1374 O   0  0  0  0  0  0  0  0  0  0  0  0
    0.3080   -2.2761   -0.3925 O   0  0  0  0  0  0  0  0  0  0  0  0
    3.5353    0.9260    1.5544 O   0  0  0  0  0  0  0  0  0  0  0  0
    3.0592    1.8041   -0.7770 O   0  0  0  0  0  0  0  0  0  0  0  0
    4.8810   -0.0695   -0.4804 O   0  0  0  0  0  0  0  0  0  0  0  0
   -2.0217    0.3278   -0.2706 C   0  0  2  0  0  0  0  0  0  0  0  0
   -1.4280   -0.8590    0.5050 C   0  0  2  0  0  0  0  0  0  0  0  0
   -3.4724    0.6496    0.1331 C   0  0  2  0  0  0  0  0  0  0  0  0
    0.0036   -1.1807    0.0807 C   0  0  0  0  0  0  0  0  0  0  0  0
   -4.0558    1.7992   -0.6824 C   0  0  0  0  0  0  0  0  0  0  0  0
    1.0399   -0.0931    0.2921 C   0  0  0  0  0  0  0  0  0  0  0  0
   -1.4067    1.2174   -0.0966 H   0  0  0  0  0  0  0  0  0  0  0  0
   -1.4017   -0.6359    1.5775 H   0  0  0  0  0  0  0  0  0  0  0  0
   -4.1167   -0.2236   -0.0254 H   0  0  0  0  0  0  0  0  0  0  0  0
   -3.4595    2.7093   -0.5543 H   0  0  0  0  0  0  0  0  0  0  0  0
   -5.0672    2.0364   -0.3344 H   0  0  0  0  0  0  0  0  0  0  0  0
   -4.1061    1.5588   -1.7483 H   0  0  0  0  0  0  0  0  0  0  0  0
    0.7566    0.7867   -0.2890 H   0  0  0  0  0  0  0  0  0  0  0  0
    1.0714    0.1493    1.3580 H   0  0  0  0  0  0  0  0  0  0  0  0
   -2.5109   -0.7505   -1.8278 H   0  0  0  0  0  0  0  0  0  0  0  0
   -1.8690   -2.7052    0.9436 H   0  0  0  0  0  0  0  0  0  0  0  0
   -3.3857    0.1923    2.0310 H   0  0  0  0  0  0  0  0  0  0  0  0
    4.2561    1.4932    1.9020 H   0  0  0  0  0  0  0  0  0  0  0  0
    3.6863    2.5457   -0.9144 H   0  0  0  0  0  0  0  0  0  0  0  0
  1  5  1  0  0  0  0
  1  7  1  0  0  0  0
  1  8  1  0  0  0  0
  1  9  2  0  0  0  0
  2 10  1  0  0  0  0
  2 24  1  0  0  0  0
  3 11  1  0  0  0  0
  3 25  1  0  0  0  0
  4 12  1  0  0  0  0
  4 26  1  0  0  0  0
  5 15  1  0  0  0  0
  6 13  2  0  0  0  0
  7 27  1  0  0  0  0
  8 28  1  0  0  0  0
 10 11  1  0  0  0  0
 10 12  1  0  0  0  0
 10 16  1  0  0  0  0
 11 13  1  0  0  0  0
 11 17  1  0  0  0  0
 12 14  1  0  0  0  0
 12 18  1  0  0  0  0
 13 15  1  0  0  0  0
 14 19  1  0  0  0  0
 14 20  1  0  0  0  0
 14 21  1  0  0  0  0
 15 22  1  0  0  0  0
 15 23  1  0  0  0  0
M  END
> <PUBCHEM_COMPOUND_CID>
6451998

> <PUBCHEM_CONFORMER_RMSD>
0.8

> <PUBCHEM_CONFORMER_DIVERSEORDER>
1
44
75
3
64
45
113
81
118
108
27
54
22
29
55
6
25
9
24
37
77
90
87
98
96
86
79
30
7
69
59
67
89
39
58
107
83
47
26
72
31
93
114
57
102
94
14
95
11
109
4
91
74
92
101
2
12
28
97
10
117
36
21
111
20
33
78
51
103
41
56
17
19
35
46
110
68
18
32
23
66
82
43
40
80
88
112
76
15
49
48
52
106
60
16
61
104
99
71
116
53
100
5
70
38
42
8
34
62
105
73
13
65
84
85
115
50
63

> <PUBCHEM_MMFF94_PARTIAL_CHARGES>
19
1 1.51
10 0.28
11 0.34
12 0.28
13 0.45
15 0.34
2 -0.68
24 0.4
25 0.4
26 0.4
27 0.5
28 0.5
3 -0.68
4 -0.68
5 -0.55
6 -0.57
7 -0.77
8 -0.77
9 -0.7

> <PUBCHEM_EFFECTIVE_ROTOR_COUNT>
6

> <PUBCHEM_PHARMACOPHORE_FEATURES>
11
1 2 acceptor
1 2 donor
1 3 acceptor
1 3 donor
1 4 acceptor
1 4 donor
1 6 acceptor
1 7 acceptor
1 8 acceptor
1 9 acceptor
4 1 7 8 9 anion

> <PUBCHEM_HEAVY_ATOM_COUNT>
15

> <PUBCHEM_ATOM_DEF_STEREO_COUNT>
3

> <PUBCHEM_ATOM_UDEF_STEREO_COUNT>
0

> <PUBCHEM_BOND_DEF_STEREO_COUNT>
0

> <PUBCHEM_BOND_UDEF_STEREO_COUNT>
0

> <PUBCHEM_ISOTOPIC_ATOM_COUNT>
0

> <PUBCHEM_COMPONENT_COUNT>
1

> <PUBCHEM_CACTVS_TAUTO_COUNT>
9

> <PUBCHEM_CONFORMER_ID>
0062731E00000001

> <PUBCHEM_MMFF94_ENERGY>
-13.1897

> <PUBCHEM_FEATURE_SELFOVERLAP>
55.875

> <PUBCHEM_SHAPE_FINGERPRINT>
11127187 94 12463564080687791573
11132069 177 18334572447263201949
11543360 7 15554153852734105521
122479 349 18259988167109629161
12500047 106 18272085058964284886
12932764 1 17167853197415113204
14123255 52 18337950099992310133
14123260 362 18342744013496668273
14252887 29 11674881070074308072
14897335 6 18410852136113943339
15775835 57 18113617884879971168
1741750 31 18342455949934663083
17834072 32 18333732407653259717
17834072 8 18271533009611351014
18186145 218 18343869900634387036
20112054 60 18200307843979337248
20281407 28 10375869692687935119
20281475 54 10591755511062512791
20645477 56 18410015446166483051
20645477 70 17274831212105947774
20671657 53 12391506494728199746
20871998 22 10953735565196462210
21119208 17 16343702114726938276
21524375 3 18411697686225267091
23402539 116 18131062732498708884
23402655 69 17561365084834134744
23403322 49 11095884856441403397
23500284 214 18410297990853690867
23557571 272 18341343287080142510
23559900 14 18059859476671115768
25 1 18201159853832445251
27216 239 18041001756473964809
4028521 119 18130781222867237497
6430166 295 18408039602707970232
9882013 296 12540699232170450072

> <PUBCHEM_SHAPE_MULTIPOLES>
265.59
8.52
1.86
1.11
4.44
0.5
-0.15
-4.75
-0.24
-0.73
0.19
-0.27
-0.3
0.24

> <PUBCHEM_SHAPE_SELFOVERLAP>
496.66

> <PUBCHEM_SHAPE_VOLUME>
166.3

> <PUBCHEM_COORDINATE_TYPE>
2
5
10