68808060
  -OEChem-05072106003D

 45 45  0     1  0  0  0  0  0999 V2000
    1.2232    0.6518   -0.3924 O   0  0  0  0  0  0  0  0  0  0  0  0
   -1.4604   -0.6064    1.6833 O   0  0  0  0  0  0  0  0  0  0  0  0
    0.6085   -2.0084    2.0790 O   0  0  0  0  0  0  0  0  0  0  0  0
    3.1156   -2.8100    0.8629 O   0  0  0  0  0  0  0  0  0  0  0  0
    3.0037   -1.3523   -1.4755 O   0  0  0  0  0  0  0  0  0  0  0  0
   -0.8964    2.2555   -0.5224 O   0  0  0  0  0  0  0  0  0  0  0  0
   -0.6382   -0.2108   -1.8663 O   0  0  0  0  0  0  0  0  0  0  0  0
    2.9258    2.9165   -1.2300 O   0  0  0  0  0  0  0  0  0  0  0  0
   -1.9296    3.4471    1.9652 O   0  0  0  0  0  0  0  0  0  0  0  0
   -3.3372    0.1701   -1.6532 O   0  0  0  0  0  0  0  0  0  0  0  0
   -4.9728   -1.7518   -0.8004 O   0  0  0  0  0  0  0  0  0  0  0  0
    0.6218    0.0146    0.7388 C   0  0  1  0  0  0  0  0  0  0  0  0
   -0.8902    0.0653    0.5452 C   0  0  2  0  0  0  0  0  0  0  0  0
    1.1228   -1.4290    0.8820 C   0  0  1  0  0  0  0  0  0  0  0  0
    2.6529   -1.4636    0.9187 C   0  0  2  0  0  0  0  0  0  0  0  0
    3.2555   -0.6722   -0.2437 C   0  0  2  0  0  0  0  0  0  0  0  0
    2.6510    0.7367   -0.2913 C   0  0  1  0  0  0  0  0  0  0  0  0
   -1.4236    1.5232    0.5954 C   0  0  1  0  0  0  0  0  0  0  0  0
   -1.2986   -0.7308   -0.7201 C   0  0  1  0  0  0  0  0  0  0  0  0
    3.1457    1.5411   -1.4876 C   0  0  0  0  0  0  0  0  0  0  0  0
   -1.0625    2.3200    1.8476 C   0  0  0  0  0  0  0  0  0  0  0  0
   -2.8023   -0.7314   -1.0061 C   0  0  0  0  0  0  0  0  0  0  0  0
   -3.6146   -1.8750   -0.4291 C   0  0  0  0  0  0  0  0  0  0  0  0
    0.8947    0.5600    1.6517 H   0  0  0  0  0  0  0  0  0  0  0  0
    0.8132   -2.0749    0.0578 H   0  0  0  0  0  0  0  0  0  0  0  0
    3.0013   -1.0471    1.8722 H   0  0  0  0  0  0  0  0  0  0  0  0
    4.3445   -0.6232   -0.1345 H   0  0  0  0  0  0  0  0  0  0  0  0
    2.8942    1.2782    0.6327 H   0  0  0  0  0  0  0  0  0  0  0  0
   -2.5153    1.5227    0.4941 H   0  0  0  0  0  0  0  0  0  0  0  0
   -1.0321   -1.7882   -0.6348 H   0  0  0  0  0  0  0  0  0  0  0  0
    2.6106    1.2736   -2.4046 H   0  0  0  0  0  0  0  0  0  0  0  0
    4.2209    1.4014   -1.6368 H   0  0  0  0  0  0  0  0  0  0  0  0
   -0.0365    2.6995    1.8027 H   0  0  0  0  0  0  0  0  0  0  0  0
   -1.1905    1.7207    2.7536 H   0  0  0  0  0  0  0  0  0  0  0  0
   -2.4070   -0.3908    1.7231 H   0  0  0  0  0  0  0  0  0  0  0  0
    0.8971   -1.4580    2.8268 H   0  0  0  0  0  0  0  0  0  0  0  0
    4.0873   -2.7876    0.8918 H   0  0  0  0  0  0  0  0  0  0  0  0
    2.0547   -1.2783   -1.6729 H   0  0  0  0  0  0  0  0  0  0  0  0
   -1.2794    3.1489   -0.4916 H   0  0  0  0  0  0  0  0  0  0  0  0
   -0.8035   -0.8229   -2.6037 H   0  0  0  0  0  0  0  0  0  0  0  0
   -3.2279   -2.8175   -0.8267 H   0  0  0  0  0  0  0  0  0  0  0  0
   -3.5498   -1.8714    0.6599 H   0  0  0  0  0  0  0  0  0  0  0  0
    3.2512    3.4090   -2.0027 H   0  0  0  0  0  0  0  0  0  0  0  0
   -1.6677    3.9245    2.7709 H   0  0  0  0  0  0  0  0  0  0  0  0
   -5.4400   -2.5258   -0.4425 H   0  0  0  0  0  0  0  0  0  0  0  0
  1 12  1  0  0  0  0
  1 17  1  0  0  0  0
  2 13  1  0  0  0  0
  2 35  1  0  0  0  0
  3 14  1  0  0  0  0
  3 36  1  0  0  0  0
  4 15  1  0  0  0  0
  4 37  1  0  0  0  0
  5 16  1  0  0  0  0
  5 38  1  0  0  0  0
  6 18  1  0  0  0  0
  6 39  1  0  0  0  0
  7 19  1  0  0  0  0
  7 40  1  0  0  0  0
  8 20  1  0  0  0  0
  8 43  1  0  0  0  0
  9 21  1  0  0  0  0
  9 44  1  0  0  0  0
 10 22  2  0  0  0  0
 11 23  1  0  0  0  0
 11 45  1  0  0  0  0
 12 13  1  0  0  0  0
 12 14  1  0  0  0  0
 12 24  1  0  0  0  0
 13 18  1  0  0  0  0
 13 19  1  0  0  0  0
 14 15  1  0  0  0  0
 14 25  1  0  0  0  0
 15 16  1  0  0  0  0
 15 26  1  0  0  0  0
 16 17  1  0  0  0  0
 16 27  1  0  0  0  0
 17 20  1  0  0  0  0
 17 28  1  0  0  0  0
 18 21  1  0  0  0  0
 18 29  1  0  0  0  0
 19 22  1  0  0  0  0
 19 30  1  0  0  0  0
 20 31  1  0  0  0  0
 20 32  1  0  0  0  0
 21 33  1  0  0  0  0
 21 34  1  0  0  0  0
 22 23  1  0  0  0  0
 23 41  1  0  0  0  0
 23 42  1  0  0  0  0
M  END
> <PUBCHEM_COMPOUND_CID>
68808060

> <PUBCHEM_CONFORMER_RMSD>
0.8

> <PUBCHEM_CONFORMER_DIVERSEORDER>
1
7
37
115
35
17
139
102
100
50
10
76
124
68
45
36
92
82
95
112
74
117
72
52
69
54
128
111
48
66
83
106
59
88
31
89
99
114
41
73
85
110
34
65
87
101
129
8
12
28
20
119
43
79
38
107
23
60
93
55
51
67
98
78
122
113
63
132
6
25
40
80
127
105
77
16
138
123
4
21
33
109
116
2
5
86
91
53
64
126
3
133
84
49
15
135
13
57
137
58
125
81
61
9
32
29
96
44
56
108
39
120
62
26
22
46
11
90
24
75
27
131
47
134
130
94
71
118
136
97
104
121
18
103
19
42
70
30
14

> <PUBCHEM_MMFF94_PARTIAL_CHARGES>
32
1 -0.56
10 -0.57
11 -0.68
12 0.28
13 0.28
14 0.28
15 0.28
16 0.28
17 0.28
18 0.28
19 0.34
2 -0.68
20 0.28
21 0.28
22 0.45
23 0.34
3 -0.68
35 0.4
36 0.4
37 0.4
38 0.4
39 0.4
4 -0.68
40 0.4
43 0.4
44 0.4
45 0.4
5 -0.68
6 -0.68
7 -0.68
8 -0.68
9 -0.68

> <PUBCHEM_EFFECTIVE_ROTOR_COUNT>
8.2

> <PUBCHEM_PHARMACOPHORE_FEATURES>
21
1 1 acceptor
1 10 acceptor
1 11 acceptor
1 11 donor
1 2 acceptor
1 2 donor
1 3 acceptor
1 3 donor
1 4 acceptor
1 4 donor
1 5 acceptor
1 5 donor
1 6 acceptor
1 6 donor
1 7 acceptor
1 7 donor
1 8 acceptor
1 8 donor
1 9 acceptor
1 9 donor
6 1 12 14 15 16 17 rings

> <PUBCHEM_HEAVY_ATOM_COUNT>
23

> <PUBCHEM_ATOM_DEF_STEREO_COUNT>
8

> <PUBCHEM_ATOM_UDEF_STEREO_COUNT>
0

> <PUBCHEM_BOND_DEF_STEREO_COUNT>
0

> <PUBCHEM_BOND_UDEF_STEREO_COUNT>
0

> <PUBCHEM_ISOTOPIC_ATOM_COUNT>
0

> <PUBCHEM_COMPONENT_COUNT>
1

> <PUBCHEM_CACTVS_TAUTO_COUNT>
5

> <PUBCHEM_CONFORMER_ID>
0419ED7C00000001

> <PUBCHEM_MMFF94_ENERGY>
67.5776

> <PUBCHEM_FEATURE_SELFOVERLAP>
106.696

> <PUBCHEM_SHAPE_FINGERPRINT>
11578080 2 18123435389755909496
12293681 160 18053111910512611856
12553582 1 17774714380932547799
12596599 1 18194120720562665654
12714826 92 16917077645850241127
12788726 201 18272938206519269131
13009979 54 18198054790383757538
13538477 17 18198618843842853129
14178342 30 18055063264510565154
14617773 55 18411705348262196697
14787075 74 17976260467098962071
15664445 248 17630897203193955388
15852999 172 13407068154976136233
15906896 17 18126299549242598673
16752209 62 17774433889492551399
16945 1 18041572364316995770
1813 80 17274539953193411477
18186145 218 16226313829629803031
18219364 16 17023763207833281448
18981168 100 16806190798904387428
192875 21 18260259785537640416
19765921 60 17971461047367207630
200 152 18409161134406446982
20600515 1 17543296719654364697
21330990 113 15984284962257833179
21524375 3 17837232388560181409
22112679 90 18048312246051806058
228727 97 18341337793859116632
23419403 2 17044315613960331315
23526113 38 18115864281809401427
23557571 272 17774429482929900330
23558518 356 18339934718337787432
23559900 14 18261937592593868126
23598288 3 17987791900174435895
23598291 2 18267875990797693462
238 59 17458062664274107230
266924 1 18411424994377516536
2748010 2 15453975523377848634
312423 11 18339372880965713214
3286 77 17386266736876630750
3323516 105 18116143553557819935
394222 165 17242720125361866136
5262128 65 18339934731491942166
6992083 37 17906451026621402360
70251023 43 18270976690586729342
7164475 11 18272657822195401660
7615 1 18337957783767839624
7832392 63 18123483678536662464
81228 2 17845643747344254953

> <PUBCHEM_SHAPE_MULTIPOLES>
408.77
6.32
3.12
1.9
2.39
1.88
-0.28
-2.73
2.82
-0.18
-1.21
0.16
0.41
-2.28

> <PUBCHEM_SHAPE_SELFOVERLAP>
829.699

> <PUBCHEM_SHAPE_VOLUME>
233.5

> <PUBCHEM_COORDINATE_TYPE>
2
5
10