69398687
  -OEChem-05072106003D

 51 52  0     1  0  0  0  0  0999 V2000
   -3.0285   -1.5276    1.8554 O   0  0  0  0  0  0  0  0  0  0  0  0
   -3.7797    1.0699    1.5224 O   0  0  0  0  0  0  0  0  0  0  0  0
   -5.5766   -0.9978    0.8146 O   0  0  0  0  0  0  0  0  0  0  0  0
   -0.5592   -0.5794    1.8178 O   0  0  0  0  0  0  0  0  0  0  0  0
   -6.2685   -0.8355   -2.1184 O   0  0  0  0  0  0  0  0  0  0  0  0
    0.8617   -0.1226   -0.4905 N   0  0  0  0  0  0  0  0  0  0  0  0
   -2.6461   -0.8809    0.6508 C   0  0  1  0  0  0  0  0  0  0  0  0
   -3.5911    0.2872    0.3361 C   0  0  1  0  0  0  0  0  0  0  0  0
   -0.5652    0.1669   -0.4780 C   0  0  0  0  0  0  0  0  0  0  0  0
   -1.1861   -0.4414    0.7665 C   0  0  0  0  0  0  0  0  0  0  0  0
   -4.9822   -0.1414   -0.1682 C   0  0  1  0  0  0  0  0  0  0  0  0
    1.1059   -1.5047   -0.9096 C   0  0  0  0  0  0  0  0  0  0  0  0
    1.5706    0.8065   -1.3735 C   0  0  0  0  0  0  0  0  0  0  0  0
    2.4396   -2.0095   -0.4267 C   0  0  0  0  0  0  0  0  0  0  0  0
    1.7569    2.1565   -0.7336 C   0  0  0  0  0  0  0  0  0  0  0  0
   -4.9850   -0.8784   -1.5070 C   0  0  0  0  0  0  0  0  0  0  0  0
    3.1331   -2.9666   -1.1675 C   0  0  0  0  0  0  0  0  0  0  0  0
    0.7890    3.1470   -0.8996 C   0  0  0  0  0  0  0  0  0  0  0  0
    2.9816   -1.5202    0.7616 C   0  0  0  0  0  0  0  0  0  0  0  0
    2.8978    2.4166    0.0255 C   0  0  0  0  0  0  0  0  0  0  0  0
    4.3687   -3.4344   -0.7199 C   0  0  0  0  0  0  0  0  0  0  0  0
    0.9619    4.3977   -0.3066 C   0  0  0  0  0  0  0  0  0  0  0  0
    4.2171   -1.9878    1.2092 C   0  0  0  0  0  0  0  0  0  0  0  0
    3.0709    3.6672    0.6184 C   0  0  0  0  0  0  0  0  0  0  0  0
    4.9107   -2.9450    0.4685 C   0  0  0  0  0  0  0  0  0  0  0  0
    2.1028    4.6578    0.4523 C   0  0  0  0  0  0  0  0  0  0  0  0
   -2.6719   -1.6331   -0.1444 H   0  0  0  0  0  0  0  0  0  0  0  0
   -3.1568    0.9515   -0.4188 H   0  0  0  0  0  0  0  0  0  0  0  0
   -0.7982    1.2285   -0.3920 H   0  0  0  0  0  0  0  0  0  0  0  0
   -1.0621   -0.2156   -1.3776 H   0  0  0  0  0  0  0  0  0  0  0  0
   -5.6327    0.7394   -0.2335 H   0  0  0  0  0  0  0  0  0  0  0  0
    0.3613   -2.1859   -0.4765 H   0  0  0  0  0  0  0  0  0  0  0  0
    1.0197   -1.6034   -2.0003 H   0  0  0  0  0  0  0  0  0  0  0  0
    2.5720    0.4319   -1.6263 H   0  0  0  0  0  0  0  0  0  0  0  0
    1.0592    0.9118   -2.3409 H   0  0  0  0  0  0  0  0  0  0  0  0
   -4.7139   -1.9314   -1.3795 H   0  0  0  0  0  0  0  0  0  0  0  0
   -4.2814   -0.4074   -2.2009 H   0  0  0  0  0  0  0  0  0  0  0  0
   -3.0687   -0.8529    2.5546 H   0  0  0  0  0  0  0  0  0  0  0  0
   -2.9082    1.4065    1.7920 H   0  0  0  0  0  0  0  0  0  0  0  0
   -5.5767   -0.5150    1.6589 H   0  0  0  0  0  0  0  0  0  0  0  0
    2.7205   -3.3566   -2.0941 H   0  0  0  0  0  0  0  0  0  0  0  0
   -0.0915    2.9766   -1.5130 H   0  0  0  0  0  0  0  0  0  0  0  0
    2.4613   -0.7896    1.3743 H   0  0  0  0  0  0  0  0  0  0  0  0
    3.6598    1.6543    0.1636 H   0  0  0  0  0  0  0  0  0  0  0  0
    4.9085   -4.1800   -1.2964 H   0  0  0  0  0  0  0  0  0  0  0  0
    0.2118    5.1714   -0.4419 H   0  0  0  0  0  0  0  0  0  0  0  0
    4.6375   -1.6100    2.1367 H   0  0  0  0  0  0  0  0  0  0  0  0
    3.9593    3.8699    1.2093 H   0  0  0  0  0  0  0  0  0  0  0  0
   -6.1991   -1.3135   -2.9624 H   0  0  0  0  0  0  0  0  0  0  0  0
    5.8722   -3.3099    0.8177 H   0  0  0  0  0  0  0  0  0  0  0  0
    2.2384    5.6321    0.9127 H   0  0  0  0  0  0  0  0  0  0  0  0
  1  7  1  0  0  0  0
  1 38  1  0  0  0  0
  2  8  1  0  0  0  0
  2 39  1  0  0  0  0
  3 11  1  0  0  0  0
  3 40  1  0  0  0  0
  4 10  2  0  0  0  0
  5 16  1  0  0  0  0
  5 49  1  0  0  0  0
  6  9  1  0  0  0  0
  6 12  1  0  0  0  0
  6 13  1  0  0  0  0
  7  8  1  0  0  0  0
  7 10  1  0  0  0  0
  7 27  1  0  0  0  0
  8 11  1  0  0  0  0
  8 28  1  0  0  0  0
  9 10  1  0  0  0  0
  9 29  1  0  0  0  0
  9 30  1  0  0  0  0
 11 16  1  0  0  0  0
 11 31  1  0  0  0  0
 12 14  1  0  0  0  0
 12 32  1  0  0  0  0
 12 33  1  0  0  0  0
 13 15  1  0  0  0  0
 13 34  1  0  0  0  0
 13 35  1  0  0  0  0
 14 17  2  0  0  0  0
 14 19  1  0  0  0  0
 15 18  2  0  0  0  0
 15 20  1  0  0  0  0
 16 36  1  0  0  0  0
 16 37  1  0  0  0  0
 17 21  1  0  0  0  0
 17 41  1  0  0  0  0
 18 22  1  0  0  0  0
 18 42  1  0  0  0  0
 19 23  2  0  0  0  0
 19 43  1  0  0  0  0
 20 24  2  0  0  0  0
 20 44  1  0  0  0  0
 21 25  2  0  0  0  0
 21 45  1  0  0  0  0
 22 26  2  0  0  0  0
 22 46  1  0  0  0  0
 23 25  1  0  0  0  0
 23 47  1  0  0  0  0
 24 26  1  0  0  0  0
 24 48  1  0  0  0  0
 25 50  1  0  0  0  0
 26 51  1  0  0  0  0
M  END
> <PUBCHEM_COMPOUND_CID>
69398687

> <PUBCHEM_CONFORMER_RMSD>
1.2

> <PUBCHEM_CONFORMER_DIVERSEORDER>
1
88
46
77
89
92
31
35
61
8
93
65
84
79
56
23
6
108
74
54
24
90
91
102
73
97
17
14
52
70
3
86
82
2
100
9
59
48
78
58
107
106
87
32
66
39
13
50
51
83
49
30
26
64
7
75
5
53
12
47
36
33
99
19
57
44
10
11
43
94
41
85
105
22
18
80
71
60
63
72
15
76
34
27
103
67
25
42
98
95
4
96
62
37
29
69
68
81
38
16
28
55
104
21
45
101
20
40

> <PUBCHEM_MMFF94_PARTIAL_CHARGES>
40
1 -0.68
10 0.45
11 0.28
12 0.41
13 0.41
14 -0.14
15 -0.14
16 0.28
17 -0.15
18 -0.15
19 -0.15
2 -0.68
20 -0.15
21 -0.15
22 -0.15
23 -0.15
24 -0.15
25 -0.15
26 -0.15
3 -0.68
38 0.4
39 0.4
4 -0.57
40 0.4
41 0.15
42 0.15
43 0.15
44 0.15
45 0.15
46 0.15
47 0.15
48 0.15
49 0.4
5 -0.68
50 0.15
51 0.15
6 -0.81
7 0.34
8 0.28
9 0.33

> <PUBCHEM_EFFECTIVE_ROTOR_COUNT>
10

> <PUBCHEM_PHARMACOPHORE_FEATURES>
12
1 1 acceptor
1 1 donor
1 2 acceptor
1 2 donor
1 3 acceptor
1 3 donor
1 4 acceptor
1 5 acceptor
1 5 donor
1 6 cation
6 14 17 19 21 23 25 rings
6 15 18 20 22 24 26 rings

> <PUBCHEM_HEAVY_ATOM_COUNT>
26

> <PUBCHEM_ATOM_DEF_STEREO_COUNT>
3

> <PUBCHEM_ATOM_UDEF_STEREO_COUNT>
0

> <PUBCHEM_BOND_DEF_STEREO_COUNT>
0

> <PUBCHEM_BOND_UDEF_STEREO_COUNT>
0

> <PUBCHEM_ISOTOPIC_ATOM_COUNT>
0

> <PUBCHEM_COMPONENT_COUNT>
1

> <PUBCHEM_CACTVS_TAUTO_COUNT>
10

> <PUBCHEM_CONFORMER_ID>
0422F09F00000001

> <PUBCHEM_MMFF94_ENERGY>
67.5117

> <PUBCHEM_FEATURE_SELFOVERLAP>
60.933

> <PUBCHEM_SHAPE_FINGERPRINT>
1100329 8 17975983059420091232
12160290 23 17180277420931771948
12166972 35 18202563956062007195
12342043 65 17461194112419616947
12516196 113 18336831883951148370
12549972 3 17677070026150742801
12788726 201 17828496773425804522
13134695 92 18336554845358513606
13533116 47 18335427902296928755
13540713 4 17822860908955722299
13583140 156 18190753113920395915
13899415 180 18337107852499574471
13955234 65 18339091508846574611
15420108 30 18200586042645048164
17349148 13 18131357379961235863
17980427 23 18059581230702891649
1813 80 18199753553007552286
18222031 100 18340491050063805294
19304671 126 17683758295902134189
21033648 29 17558532634937408195
21304303 172 18124320393768454488
21304303 282 17047650415869474396
2132832 1 18201440246915422929
21424621 283 10809928283617038982
21968339 14 18197198438546047285
23419403 2 18041821949209117356
23559900 14 18408322211493023323
283562 15 17973451992844012506
4015057 19 18408886248205052219
4149490 64 18263913514580792727
508180 173 17971180444902653653
5104073 3 18265352719418946195
5171179 24 18337378362462422757
5385378 56 18266752444106323761
5969126 39 18194964029202552198
6004065 56 18408877438821329242
67856867 119 18271240616563970977
7471813 234 18342739581100857773
81228 2 17539994783563074070
9981440 41 17834112330968329689

> <PUBCHEM_SHAPE_MULTIPOLES>
500.74
11.05
5.65
1.54
16.08
7.36
-0.03
-9.96
0.85
-9.6
0.27
1.27
-0.59
0.01

> <PUBCHEM_SHAPE_SELFOVERLAP>
1038.551

> <PUBCHEM_SHAPE_VOLUME>
284.5

> <PUBCHEM_COORDINATE_TYPE>
2
5
10