69732337
  -OEChem-05072106003D

 36 36  0     1  0  0  0  0  0999 V2000
    0.9526    2.2119    0.4228 O   0  0  0  0  0  0  0  0  0  0  0  0
   -0.0330   -1.2784    1.0275 O   0  0  0  0  0  0  0  0  0  0  0  0
   -2.2021   -0.2188   -0.5659 O   0  0  0  0  0  0  0  0  0  0  0  0
    2.8125    0.3111   -0.3350 O   0  0  0  0  0  0  0  0  0  0  0  0
   -2.1863    2.4594   -0.9178 O   0  0  0  0  0  0  0  0  0  0  0  0
   -0.5181   -2.3552   -0.9580 O   0  0  0  0  0  0  0  0  0  0  0  0
   -4.0913    0.2639    0.6730 O   0  0  0  0  0  0  0  0  0  0  0  0
    4.9066   -0.4164    0.3151 O   0  0  0  0  0  0  0  0  0  0  0  0
    0.0111   -0.0262    0.3479 C   0  0  2  0  0  0  0  0  0  0  0  0
    0.9771    0.9314    1.0627 C   0  0  1  0  0  0  0  0  0  0  0  0
   -1.4062    0.5437    0.3237 C   0  0  1  0  0  0  0  0  0  0  0  0
   -1.3678    1.9891   -0.1301 C   0  0  0  0  0  0  0  0  0  0  0  0
    2.4189    0.4348    1.0194 C   0  0  0  0  0  0  0  0  0  0  0  0
   -0.3094    2.8482    0.5193 C   0  0  0  0  0  0  0  0  0  0  0  0
   -0.3096   -2.3652    0.2477 C   0  0  0  0  0  0  0  0  0  0  0  0
   -3.5393   -0.2780   -0.2751 C   0  0  0  0  0  0  0  0  0  0  0  0
    4.0921   -0.1281   -0.5513 C   0  0  0  0  0  0  0  0  0  0  0  0
   -0.3235   -3.6036    1.0916 C   0  0  0  0  0  0  0  0  0  0  0  0
   -4.2515   -1.1139   -1.2950 C   0  0  0  0  0  0  0  0  0  0  0  0
    4.3672   -0.2095   -2.0223 C   0  0  0  0  0  0  0  0  0  0  0  0
    0.3519   -0.1574   -0.6888 H   0  0  0  0  0  0  0  0  0  0  0  0
    0.6939    1.0450    2.1176 H   0  0  0  0  0  0  0  0  0  0  0  0
   -1.8190    0.5143    1.3408 H   0  0  0  0  0  0  0  0  0  0  0  0
    2.5107   -0.5314    1.5284 H   0  0  0  0  0  0  0  0  0  0  0  0
    3.0722    1.1659    1.5107 H   0  0  0  0  0  0  0  0  0  0  0  0
   -0.2487    3.8048   -0.0076 H   0  0  0  0  0  0  0  0  0  0  0  0
   -0.5721    3.0377    1.5650 H   0  0  0  0  0  0  0  0  0  0  0  0
   -1.1028   -3.5232    1.8537 H   0  0  0  0  0  0  0  0  0  0  0  0
   -0.5409   -4.4701    0.4606 H   0  0  0  0  0  0  0  0  0  0  0  0
    0.6558   -3.7471    1.5549 H   0  0  0  0  0  0  0  0  0  0  0  0
   -4.1364   -0.6664   -2.2853 H   0  0  0  0  0  0  0  0  0  0  0  0
   -5.3170   -1.1541   -1.0516 H   0  0  0  0  0  0  0  0  0  0  0  0
   -3.8523   -2.1312   -1.2830 H   0  0  0  0  0  0  0  0  0  0  0  0
    3.6753   -0.9149   -2.4893 H   0  0  0  0  0  0  0  0  0  0  0  0
    5.3889   -0.5660   -2.1816 H   0  0  0  0  0  0  0  0  0  0  0  0
    4.2691    0.7815   -2.4724 H   0  0  0  0  0  0  0  0  0  0  0  0
  1 10  1  0  0  0  0
  1 14  1  0  0  0  0
  2  9  1  0  0  0  0
  2 15  1  0  0  0  0
  3 11  1  0  0  0  0
  3 16  1  0  0  0  0
  4 13  1  0  0  0  0
  4 17  1  0  0  0  0
  5 12  2  0  0  0  0
  6 15  2  0  0  0  0
  7 16  2  0  0  0  0
  8 17  2  0  0  0  0
  9 10  1  0  0  0  0
  9 11  1  0  0  0  0
  9 21  1  0  0  0  0
 10 13  1  0  0  0  0
 10 22  1  0  0  0  0
 11 12  1  0  0  0  0
 11 23  1  0  0  0  0
 12 14  1  0  0  0  0
 13 24  1  0  0  0  0
 13 25  1  0  0  0  0
 14 26  1  0  0  0  0
 14 27  1  0  0  0  0
 15 18  1  0  0  0  0
 16 19  1  0  0  0  0
 17 20  1  0  0  0  0
 18 28  1  0  0  0  0
 18 29  1  0  0  0  0
 18 30  1  0  0  0  0
 19 31  1  0  0  0  0
 19 32  1  0  0  0  0
 19 33  1  0  0  0  0
 20 34  1  0  0  0  0
 20 35  1  0  0  0  0
 20 36  1  0  0  0  0
M  END
> <PUBCHEM_COMPOUND_CID>
69732337

> <PUBCHEM_CONFORMER_RMSD>
0.8

> <PUBCHEM_CONFORMER_DIVERSEORDER>
1
72
89
80
31
63
28
54
46
79
67
88
6
44
11
52
7
94
73
14
50
24
13
77
60
21
61
74
40
56
93
42
35
37
75
90
87
76
36
34
29
62
69
91
83
86
53
16
32
10
25
55
78
43
48
71
65
3
27
64
82
26
19
18
68
2
49
84
22
38
33
12
57
23
8
95
20
17
39
4
81
9
58
5
51
41
66
85
47
92
59
30
70
45
15

> <PUBCHEM_MMFF94_PARTIAL_CHARGES>
20
1 -0.56
10 0.28
11 0.34
12 0.45
13 0.28
14 0.34
15 0.66
16 0.66
17 0.66
18 0.06
19 0.06
2 -0.43
20 0.06
3 -0.43
4 -0.43
5 -0.57
6 -0.57
7 -0.57
8 -0.57
9 0.28

> <PUBCHEM_EFFECTIVE_ROTOR_COUNT>
8

> <PUBCHEM_PHARMACOPHORE_FEATURES>
6
1 1 acceptor
1 5 acceptor
1 6 acceptor
1 7 acceptor
1 8 acceptor
6 1 9 10 11 12 14 rings

> <PUBCHEM_HEAVY_ATOM_COUNT>
20

> <PUBCHEM_ATOM_DEF_STEREO_COUNT>
3

> <PUBCHEM_ATOM_UDEF_STEREO_COUNT>
0

> <PUBCHEM_BOND_DEF_STEREO_COUNT>
0

> <PUBCHEM_BOND_UDEF_STEREO_COUNT>
0

> <PUBCHEM_ISOTOPIC_ATOM_COUNT>
0

> <PUBCHEM_COMPONENT_COUNT>
1

> <PUBCHEM_CACTVS_TAUTO_COUNT>
3

> <PUBCHEM_CONFORMER_ID>
042807F100000001

> <PUBCHEM_MMFF94_ENERGY>
34.9208

> <PUBCHEM_FEATURE_SELFOVERLAP>
30.45

> <PUBCHEM_SHAPE_FINGERPRINT>
10693767 8 18058145337511566823
10764073 3 15825306412778765578
11680986 33 17979915235106961969
116883 192 17692244553434841287
12035758 1 18267316489307879187
13140716 1 18121207946637547384
13149001 5 18192148419687059845
14115302 16 18260834838698001694
14790565 3 18409459080757447761
15163728 17 16516530958667774559
15209289 33 18343308076062604827
15848702 151 17632578266510198277
16752209 62 18335413543836214336
16945 1 18188194481758973457
19591789 44 18410289229088855883
20028762 73 18056478594027634647
20645476 183 17676768751142844202
20871999 31 18411990160903405892
20905425 154 18127126364458955862
21501502 16 18048023087389028905
22713019 99 18272651276760071071
22802520 49 18052256494517887698
22907989 373 18048634566235969900
2334 1 17688015831682000017
23366157 5 17463411611943915706
23402539 116 18342170055679061476
23557571 272 18343866637135021112
23559900 14 18339644559813202664
2748010 2 18265589096575000849
3060560 45 18265871705675609679
3250762 1 17689436404884015771
3286 77 17059770139063153537
3323516 105 17988928825241501358
43471831 8 18263641753986168914
59755656 215 18201719527374614543
81228 2 17834095821325345475

> <PUBCHEM_SHAPE_MULTIPOLES>
364.64
7.35
3.21
1.31
4.26
1.06
0.39
0.89
3.43
-1.47
-0.75
0.63
0.32
0.11

> <PUBCHEM_SHAPE_SELFOVERLAP>
737.357

> <PUBCHEM_SHAPE_VOLUME>
209.6

> <PUBCHEM_COORDINATE_TYPE>
2
5
10