71309810
  -OEChem-05072106003D

 24 24  0     1  0  0  0  0  0999 V2000
    0.4280    1.3639   -0.1210 O   0  0  0  0  0  0  0  0  0  0  0  0
    0.2953   -2.1873    0.8266 O   0  0  0  0  0  0  0  0  0  0  0  0
    1.1322   -0.5541   -1.3216 O   0  0  0  0  0  0  0  0  0  0  0  0
   -1.5210   -1.4253   -1.1594 O   0  0  0  0  0  0  0  0  0  0  0  0
   -2.1925    1.3080    1.1647 O   0  0  0  0  0  0  0  0  0  0  0  0
    3.1472    0.8254   -0.0280 O   0  0  0  0  0  0  0  0  0  0  0  0
   -0.1338   -0.8330    0.7373 C   0  0  1  0  0  0  0  0  0  0  0  0
    0.9010    0.0121   -0.0300 C   0  0  2  0  0  0  0  0  0  0  0  0
   -1.5278   -0.7583    0.1009 C   0  0  1  0  0  0  0  0  0  0  0  0
   -1.9340    0.7019   -0.0999 C   0  0  2  0  0  0  0  0  0  0  0  0
   -0.8283    1.4981   -0.7918 C   0  0  0  0  0  0  0  0  0  0  0  0
    2.2337    0.0488    0.7221 C   0  0  0  0  0  0  0  0  0  0  0  0
   -0.2093   -0.4452    1.7618 H   1  0  0  0  0  0  0  0  0  0  0  0
   -2.2438   -1.2847    0.7427 H   1  0  0  0  0  0  0  0  0  0  0  0
   -2.8487    0.7745   -0.6990 H   1  0  0  0  0  0  0  0  0  0  0  0
   -1.0747    2.5651   -0.7819 H   1  0  0  0  0  0  0  0  0  0  0  0
   -0.7135    1.1951   -1.8384 H   1  0  0  0  0  0  0  0  0  0  0  0
    2.6593   -0.9536    0.8315 H   1  0  0  0  0  0  0  0  0  0  0  0
    2.1209    0.5125    1.7076 H   1  0  0  0  0  0  0  0  0  0  0  0
   -0.3814   -2.6773    1.3241 H   1  0  0  0  0  0  0  0  0  0  0  0
    0.3238   -0.9961   -1.6259 H   1  0  0  0  0  0  0  0  0  0  0  0
   -2.4202   -1.3693   -1.5252 H   1  0  0  0  0  0  0  0  0  0  0  0
   -2.9098    0.8062    1.5881 H   1  0  0  0  0  0  0  0  0  0  0  0
    3.9855    0.8394    0.4647 H   1  0  0  0  0  0  0  0  0  0  0  0
  1  8  1  0  0  0  0
  1 11  1  0  0  0  0
  2  7  1  0  0  0  0
  2 20  1  0  0  0  0
  3  8  1  0  0  0  0
  3 21  1  0  0  0  0
  4  9  1  0  0  0  0
  4 22  1  0  0  0  0
  5 10  1  0  0  0  0
  5 23  1  0  0  0  0
  6 12  1  0  0  0  0
  6 24  1  0  0  0  0
  7  8  1  0  0  0  0
  7  9  1  0  0  0  0
  7 13  1  0  0  0  0
  8 12  1  0  0  0  0
  9 10  1  0  0  0  0
  9 14  1  0  0  0  0
 10 11  1  0  0  0  0
 10 15  1  0  0  0  0
 11 16  1  0  0  0  0
 11 17  1  0  0  0  0
 12 18  1  0  0  0  0
 12 19  1  0  0  0  0
M  ISO  8  13   2  14   2  15   2  16   2  17   2  18   2  19   2  20   2
M  ISO  4  21   2  22   2  23   2  24   2
M  END
> <PUBCHEM_COMPOUND_CID>
71309810

> <PUBCHEM_CONFORMER_RMSD>
0.6

> <PUBCHEM_CONFORMER_DIVERSEORDER>
1
4
5
2
3
6

> <PUBCHEM_MMFF94_PARTIAL_CHARGES>
17
1 -0.56
10 0.28
11 0.28
12 0.28
2 -0.68
20 0.4
21 0.4
22 0.4
23 0.4
24 0.4
3 -0.68
4 -0.68
5 -0.68
6 -0.68
7 0.28
8 0.56
9 0.28

> <PUBCHEM_EFFECTIVE_ROTOR_COUNT>
2.2

> <PUBCHEM_PHARMACOPHORE_FEATURES>
12
1 1 acceptor
1 2 acceptor
1 2 donor
1 3 acceptor
1 3 donor
1 4 acceptor
1 4 donor
1 5 acceptor
1 5 donor
1 6 acceptor
1 6 donor
6 1 7 8 9 10 11 rings

> <PUBCHEM_HEAVY_ATOM_COUNT>
12

> <PUBCHEM_ATOM_DEF_STEREO_COUNT>
3

> <PUBCHEM_ATOM_UDEF_STEREO_COUNT>
1

> <PUBCHEM_BOND_DEF_STEREO_COUNT>
0

> <PUBCHEM_BOND_UDEF_STEREO_COUNT>
0

> <PUBCHEM_ISOTOPIC_ATOM_COUNT>
12

> <PUBCHEM_COMPONENT_COUNT>
1

> <PUBCHEM_CACTVS_TAUTO_COUNT>
1

> <PUBCHEM_CONFORMER_ID>
044019F200000001

> <PUBCHEM_MMFF94_ENERGY>
31.8247

> <PUBCHEM_FEATURE_SELFOVERLAP>
60.974

> <PUBCHEM_SHAPE_FINGERPRINT>
12423570 1 12766490245730409059
13024252 1 17167852080343912060
13839132 238 17988372476557907176
15775835 57 18336543828614678153
16945 1 17988357177963221199
18185500 45 18335969913878651943
20511035 2 17394446901381162477
20653085 51 17846228760354777960
21040471 1 18190185593968531013
23552423 10 18187918422699268450
241688 4 18263633129760371113
2748010 2 16967996854108842730
29004967 10 16845575335359854962
369184 2 18113609093087327464
5084963 1 18340472469734082536
54338 74 18117543244380747256
68250623 7 18272363144784713150

> <PUBCHEM_SHAPE_MULTIPOLES>
211.74
3.08
1.75
1.08
1.53
0.4
0.11
-0.92
-0.35
-0.38
-0.06
-0.21
0.1
-0.31

> <PUBCHEM_SHAPE_SELFOVERLAP>
426.356

> <PUBCHEM_SHAPE_VOLUME>
122.5

> <PUBCHEM_COORDINATE_TYPE>
2
5
10