71310006
  -OEChem-05072106003D

 24 24  0     1  0  0  0  0  0999 V2000
    0.3900    0.6763    0.8302 O   0  0  0  0  0  0  0  0  0  0  0  0
   -0.5179    0.0285   -1.9775 O   0  0  0  0  0  0  0  0  0  0  0  0
   -1.4518   -0.6298    1.4774 O   0  0  0  0  0  0  0  0  0  0  0  0
    0.5357   -2.4551    0.3853 O   0  0  0  0  0  0  0  0  0  0  0  0
   -3.0752    0.8630   -0.2733 O   0  0  0  0  0  0  0  0  0  0  0  0
    2.9606    1.6117    0.3272 O   0  0  0  0  0  0  0  0  0  0  0  0
   -0.6361   -0.7204   -0.7753 C   0  0  2  0  0  0  0  0  0  0  0  0
   -0.8988    0.1782    0.4351 C   1  0  2  0  0  0  0  0  0  0  0  0
    0.7216   -1.3147   -0.4496 C   0  0  1  0  0  0  0  0  0  0  0  0
    1.4164   -0.2110    0.3462 C   0  0  1  0  0  0  0  0  0  0  0  0
   -1.8242    1.3588    0.1694 C   0  0  0  0  0  0  0  0  0  0  0  0
    2.3797    0.6145   -0.4950 C   0  0  0  0  0  0  0  0  0  0  0  0
   -1.4159   -1.4793   -0.9026 H   0  0  0  0  0  0  0  0  0  0  0  0
    1.2899   -1.6307   -1.3302 H   0  0  0  0  0  0  0  0  0  0  0  0
    1.9374   -0.6019    1.2277 H   0  0  0  0  0  0  0  0  0  0  0  0
   -1.4105    2.0388   -0.5829 H   0  0  0  0  0  0  0  0  0  0  0  0
   -1.9865    1.9384    1.0850 H   0  0  0  0  0  0  0  0  0  0  0  0
    1.8616    1.1231   -1.3138 H   0  0  0  0  0  0  0  0  0  0  0  0
    3.1775   -0.0124   -0.9049 H   0  0  0  0  0  0  0  0  0  0  0  0
   -0.3113   -0.5969   -2.6929 H   0  0  0  0  0  0  0  0  0  0  0  0
   -1.8953   -0.0449    2.1142 H   0  0  0  0  0  0  0  0  0  0  0  0
    1.4180   -2.7927    0.6165 H   0  0  0  0  0  0  0  0  0  0  0  0
   -3.6487    1.6322   -0.4308 H   0  0  0  0  0  0  0  0  0  0  0  0
    3.5732    2.1216   -0.2299 H   0  0  0  0  0  0  0  0  0  0  0  0
  1  8  1  0  0  0  0
  1 10  1  0  0  0  0
  2  7  1  0  0  0  0
  2 20  1  0  0  0  0
  3  8  1  0  0  0  0
  3 21  1  0  0  0  0
  4  9  1  0  0  0  0
  4 22  1  0  0  0  0
  5 11  1  0  0  0  0
  5 23  1  0  0  0  0
  6 12  1  0  0  0  0
  6 24  1  0  0  0  0
  7  8  1  0  0  0  0
  7  9  1  0  0  0  0
  7 13  1  0  0  0  0
  8 11  1  0  0  0  0
  9 10  1  0  0  0  0
  9 14  1  0  0  0  0
 10 12  1  0  0  0  0
 10 15  1  0  0  0  0
 11 16  1  0  0  0  0
 11 17  1  0  0  0  0
 12 18  1  0  0  0  0
 12 19  1  0  0  0  0
M  ISO  1   8  13
M  END
> <PUBCHEM_COMPOUND_CID>
71310006

> <PUBCHEM_CONFORMER_RMSD>
0.6

> <PUBCHEM_CONFORMER_DIVERSEORDER>
1
9
15
4
14
11
10
13
5
2
7
6
3
16
12
8

> <PUBCHEM_MMFF94_PARTIAL_CHARGES>
17
1 -0.56
10 0.28
11 0.28
12 0.28
2 -0.68
20 0.4
21 0.4
22 0.4
23 0.4
24 0.4
3 -0.68
4 -0.68
5 -0.68
6 -0.68
7 0.28
8 0.56
9 0.28

> <PUBCHEM_EFFECTIVE_ROTOR_COUNT>
3

> <PUBCHEM_PHARMACOPHORE_FEATURES>
12
1 1 acceptor
1 2 acceptor
1 2 donor
1 3 acceptor
1 3 donor
1 4 acceptor
1 4 donor
1 5 acceptor
1 5 donor
1 6 acceptor
1 6 donor
5 1 7 8 9 10 rings

> <PUBCHEM_HEAVY_ATOM_COUNT>
12

> <PUBCHEM_ATOM_DEF_STEREO_COUNT>
3

> <PUBCHEM_ATOM_UDEF_STEREO_COUNT>
1

> <PUBCHEM_BOND_DEF_STEREO_COUNT>
0

> <PUBCHEM_BOND_UDEF_STEREO_COUNT>
0

> <PUBCHEM_ISOTOPIC_ATOM_COUNT>
1

> <PUBCHEM_COMPONENT_COUNT>
1

> <PUBCHEM_CACTVS_TAUTO_COUNT>
1

> <PUBCHEM_CONFORMER_ID>
04401AB600000001

> <PUBCHEM_MMFF94_ENERGY>
30.5452

> <PUBCHEM_FEATURE_SELFOVERLAP>
60.957

> <PUBCHEM_SHAPE_FINGERPRINT>
12423570 1 16018393998678445706
13024252 1 13479948278353894980
137420 1 16243166911620610050
13839132 238 17968947357659700365
15775835 57 18131912667376301564
16945 1 18194406580410640027
20653085 51 17989213663320048724
21040471 1 18130497578778574242
23552423 10 18126284134420356347
369184 2 18270118066747521520
5084963 1 17058649547577633127
528862 383 18267013956095816562
68250623 7 18198058071791096595

> <PUBCHEM_SHAPE_MULTIPOLES>
211.74
3.27
1.72
1.19
0.06
0.59
0.3
-2.05
0.01
0.58
-0.23
-0.31
0.16
0.1

> <PUBCHEM_SHAPE_SELFOVERLAP>
426.887

> <PUBCHEM_SHAPE_VOLUME>
124.5

> <PUBCHEM_COORDINATE_TYPE>
2
5
10