71310259
  -OEChem-05072106003D

 24 23  0     1  0  0  0  0  0999 V2000
   -0.3508    0.2850    1.6169 O   0  0  0  0  0  0  0  0  0  0  0  0
   -2.1232   -0.0964   -1.5767 O   0  0  0  0  0  0  0  0  0  0  0  0
    0.4003   -1.9832    0.0162 O   0  0  0  0  0  0  0  0  0  0  0  0
   -4.2739    0.3478    0.1333 O   0  0  0  0  0  0  0  0  0  0  0  0
    2.7916   -1.0025    0.5186 O   0  0  0  0  0  0  0  0  0  0  0  0
    3.8346    1.3520   -0.1663 O   0  0  0  0  0  0  0  0  0  0  0  0
   -0.4982    0.2330    0.2007 C   1  0  2  0  0  0  0  0  0  0  0  0
   -1.9435   -0.1556   -0.1621 C   1  0  1  0  0  0  0  0  0  0  0  0
    0.5983   -0.6448   -0.4218 C   1  0  1  0  0  0  0  0  0  0  0  0
   -2.9637    0.7834    0.4823 C   1  0  0  0  0  0  0  0  0  0  0  0
    2.0331   -0.2421   -0.0849 C   1  0  0  0  0  0  0  0  0  0  0  0
    2.4954    1.1234   -0.5562 C   1  0  0  0  0  0  0  0  0  0  0  0
   -0.3424    1.2566   -0.1632 H   0  0  0  0  0  0  0  0  0  0  0  0
   -2.1539   -1.1835    0.1562 H   0  0  0  0  0  0  0  0  0  0  0  0
    0.5126   -0.6492   -1.5137 H   0  0  0  0  0  0  0  0  0  0  0  0
   -2.8823    0.7819    1.5732 H   0  0  0  0  0  0  0  0  0  0  0  0
   -2.8439    1.8057    0.1087 H   0  0  0  0  0  0  0  0  0  0  0  0
    0.5197    0.6696    1.8141 H   0  0  0  0  0  0  0  0  0  0  0  0
    2.4292    1.1644   -1.6468 H   0  0  0  0  0  0  0  0  0  0  0  0
    1.8699    1.8975   -0.1060 H   0  0  0  0  0  0  0  0  0  0  0  0
   -3.0450   -0.3431   -1.7645 H   0  0  0  0  0  0  0  0  0  0  0  0
    0.4095   -1.9816    0.9888 H   0  0  0  0  0  0  0  0  0  0  0  0
   -4.8994    0.9645    0.5505 H   0  0  0  0  0  0  0  0  0  0  0  0
    4.0874    2.2271   -0.5066 H   0  0  0  0  0  0  0  0  0  0  0  0
  1  7  1  0  0  0  0
  1 18  1  0  0  0  0
  2  8  1  0  0  0  0
  2 21  1  0  0  0  0
  3  9  1  0  0  0  0
  3 22  1  0  0  0  0
  4 10  1  0  0  0  0
  4 23  1  0  0  0  0
  5 11  2  0  0  0  0
  6 12  1  0  0  0  0
  6 24  1  0  0  0  0
  7  8  1  0  0  0  0
  7  9  1  0  0  0  0
  7 13  1  0  0  0  0
  8 10  1  0  0  0  0
  8 14  1  0  0  0  0
  9 11  1  0  0  0  0
  9 15  1  0  0  0  0
 10 16  1  0  0  0  0
 10 17  1  0  0  0  0
 11 12  1  0  0  0  0
 12 19  1  0  0  0  0
 12 20  1  0  0  0  0
M  ISO  6   7  13   8  13   9  13  10  13  11  13  12  13
M  END
> <PUBCHEM_COMPOUND_CID>
71310259

> <PUBCHEM_CONFORMER_RMSD>
0.6

> <PUBCHEM_CONFORMER_DIVERSEORDER>
1
25
163
122
178
159
95
164
140
57
238
269
85
214
154
26
103
195
61
7
258
228
136
60
184
37
212
62
74
142
176
128
191
201
44
89
250
211
63
10
132
267
200
189
168
261
97
91
210
46
87
158
12
249
84
54
94
119
180
192
266
263
83
183
237
65
105
215
224
166
51
55
251
139
143
6
34
245
126
222
100
40
221
198
30
23
27
169
66
232
236
148
31
138
48
219
82
70
80
79
4
272
156
43
49
225
90
247
107
206
208
75
257
112
216
113
2
24
116
130
271
16
172
38
133
243
240
260
19
88
230
254
188
239
35
175
110
147
227
106
161
9
149
52
179
111
109
207
182
268
229
22
98
253
76
127
205
264
93
15
246
151
218
174
69
181
36
121
20
145
199
242
152
29
33
125
220
165
193
153
196
47
78
86
14
185
11
203
96
155
197
53
114
68
144
241
73
118
108
72
28
190
17
173
92
102
45
3
81
167
194
170
217
41
157
204
234
150
64
255
244
162
77
32
129
124
58
42
213
101
18
137
259
248
231
186
115
50
141
67
223
233
39
256
171
123
135
187
270
120
5
59
13
117
146
131
252
202
235
226
71
209
56
160
21
99
262
134
104
177
8
265

> <PUBCHEM_MMFF94_PARTIAL_CHARGES>
17
1 -0.68
10 0.28
11 0.45
12 0.34
18 0.4
2 -0.68
21 0.4
22 0.4
23 0.4
24 0.4
3 -0.68
4 -0.68
5 -0.57
6 -0.68
7 0.28
8 0.28
9 0.34

> <PUBCHEM_EFFECTIVE_ROTOR_COUNT>
5

> <PUBCHEM_PHARMACOPHORE_FEATURES>
11
1 1 acceptor
1 1 donor
1 2 acceptor
1 2 donor
1 3 acceptor
1 3 donor
1 4 acceptor
1 4 donor
1 5 acceptor
1 6 acceptor
1 6 donor

> <PUBCHEM_HEAVY_ATOM_COUNT>
12

> <PUBCHEM_ATOM_DEF_STEREO_COUNT>
3

> <PUBCHEM_ATOM_UDEF_STEREO_COUNT>
0

> <PUBCHEM_BOND_DEF_STEREO_COUNT>
0

> <PUBCHEM_BOND_UDEF_STEREO_COUNT>
0

> <PUBCHEM_ISOTOPIC_ATOM_COUNT>
6

> <PUBCHEM_COMPONENT_COUNT>
1

> <PUBCHEM_CACTVS_TAUTO_COUNT>
6

> <PUBCHEM_CONFORMER_ID>
04401BB300000001

> <PUBCHEM_MMFF94_ENERGY>
16.7178

> <PUBCHEM_FEATURE_SELFOVERLAP>
55.858

> <PUBCHEM_SHAPE_FINGERPRINT>
10219947 1 18259706679105643821
10857977 72 15647061456021056029
12251169 10 14346077581172270540
12932764 1 17385438795719614274
14325111 11 18409451396669739967
15310529 11 18341612560571437221
15775835 57 18343023310977726820
170605 34 18341337720797063543
18186145 218 18411136926699554526
20645464 45 16660360411264719976
20645476 183 17703790348838210055
20711985 344 13253979848264163674
20871999 31 16343415228112709637
21119208 17 17060347326849160756
21293036 1 16917071070392623369
21499 59 18410854390739347150
228727 97 17489598835037837440
23211744 41 17385720270780590995
23402539 116 16515958268124073151
23552423 10 17773044050770881839
5084963 1 18059013874308216274
528886 8 18411135861458162993
57812782 119 16515402967153822133

> <PUBCHEM_SHAPE_MULTIPOLES>
211.74
6.02
1.28
1.02
1.45
0.31
0
-2.26
-0.19
-0.91
0
0.36
-0.04
-0.43

> <PUBCHEM_SHAPE_SELFOVERLAP>
401.716

> <PUBCHEM_SHAPE_VOLUME>
129.9

> <PUBCHEM_COORDINATE_TYPE>
2
5
10