71434234
  -OEChem-05072106003D

 41 42  0     1  0  0  0  0  0999 V2000
    3.3391   -0.4380    1.3789 O   0  0  0  0  0  0  0  0  0  0  0  0
    2.9268    0.9453   -1.9809 O   0  0  0  0  0  0  0  0  0  0  0  0
    4.9068   -1.6365   -0.6757 O   0  0  0  0  0  0  0  0  0  0  0  0
    7.4338   -0.3118    0.1675 O   0  0  0  0  0  0  0  0  0  0  0  0
    0.8805    2.1500    1.4960 O   0  0  0  0  0  0  0  0  0  0  0  0
    0.2456   -0.1197   -0.3506 N   0  0  0  0  0  0  0  0  0  0  0  0
   -0.9381    0.3437    0.0851 N   0  0  0  0  0  0  0  0  0  0  0  0
   -1.8462   -1.8209    0.1825 N   0  0  0  0  0  0  0  0  0  0  0  0
   -2.9053   -2.6726    0.1959 N   0  0  0  0  0  0  0  0  0  0  0  0
    3.7267    0.2819    0.2077 C   0  0  2  0  0  0  0  0  0  0  0  0
    2.6080    0.1633   -0.8393 C   0  0  1  0  0  0  0  0  0  0  0  0
    5.0764   -0.2726   -0.2844 C   0  0  1  0  0  0  0  0  0  0  0  0
    1.2615    0.6905   -0.3400 C   0  0  0  0  0  0  0  0  0  0  0  0
    6.1583   -0.2085    0.7926 C   0  0  0  0  0  0  0  0  0  0  0  0
    1.2290    2.1334    0.1271 C   0  0  0  0  0  0  0  0  0  0  0  0
   -3.3385    0.0670    0.0147 C   0  0  0  0  0  0  0  0  0  0  0  0
   -2.0675   -0.4915    0.0943 C   0  0  0  0  0  0  0  0  0  0  0  0
   -4.4317   -0.8120    0.0285 C   0  0  0  0  0  0  0  0  0  0  0  0
   -3.5610    1.4512   -0.0769 C   0  0  0  0  0  0  0  0  0  0  0  0
   -5.7372   -0.2987   -0.0497 C   0  0  0  0  0  0  0  0  0  0  0  0
   -4.1575   -2.1721    0.1207 C   0  0  0  0  0  0  0  0  0  0  0  0
   -4.8616    1.9510   -0.1538 C   0  0  0  0  0  0  0  0  0  0  0  0
   -5.9476    1.0777   -0.1404 C   0  0  0  0  0  0  0  0  0  0  0  0
    3.8849    1.3270    0.4962 H   0  0  0  0  0  0  0  0  0  0  0  0
    2.4778   -0.8807   -1.1481 H   0  0  0  0  0  0  0  0  0  0  0  0
    5.3992    0.2795   -1.1749 H   0  0  0  0  0  0  0  0  0  0  0  0
    6.0640   -1.0299    1.5100 H   0  0  0  0  0  0  0  0  0  0  0  0
    6.1302    0.7489    1.3221 H   0  0  0  0  0  0  0  0  0  0  0  0
    0.4724    2.6762   -0.4486 H   0  0  0  0  0  0  0  0  0  0  0  0
    2.1896    2.6332   -0.0103 H   0  0  0  0  0  0  0  0  0  0  0  0
    2.5811    0.0238    1.7751 H   0  0  0  0  0  0  0  0  0  0  0  0
    2.2713    0.7410   -2.6698 H   0  0  0  0  0  0  0  0  0  0  0  0
    5.7710   -1.9606   -0.9823 H   0  0  0  0  0  0  0  0  0  0  0  0
   -0.9987    1.2345    0.5621 H   0  0  0  0  0  0  0  0  0  0  0  0
    8.1013   -0.2650    0.8731 H   0  0  0  0  0  0  0  0  0  0  0  0
   -2.7464    2.1697   -0.0996 H   0  0  0  0  0  0  0  0  0  0  0  0
   -6.5960   -0.9660   -0.0404 H   0  0  0  0  0  0  0  0  0  0  0  0
    0.7495    3.0799    1.7479 H   0  0  0  0  0  0  0  0  0  0  0  0
   -4.9469   -2.9166    0.1373 H   0  0  0  0  0  0  0  0  0  0  0  0
   -5.0279    3.0219   -0.2264 H   0  0  0  0  0  0  0  0  0  0  0  0
   -6.9591    1.4687   -0.2009 H   0  0  0  0  0  0  0  0  0  0  0  0
  1 10  1  0  0  0  0
  1 31  1  0  0  0  0
  2 11  1  0  0  0  0
  2 32  1  0  0  0  0
  3 12  1  0  0  0  0
  3 33  1  0  0  0  0
  4 14  1  0  0  0  0
  4 35  1  0  0  0  0
  5 15  1  0  0  0  0
  5 38  1  0  0  0  0
  6  7  1  0  0  0  0
  6 13  2  3  0  0  0
  7 17  1  0  0  0  0
  7 34  1  0  0  0  0
  8  9  1  0  0  0  0
  8 17  2  0  0  0  0
  9 21  2  0  0  0  0
 10 11  1  0  0  0  0
 10 12  1  0  0  0  0
 10 24  1  0  0  0  0
 11 13  1  0  0  0  0
 11 25  1  0  0  0  0
 12 14  1  0  0  0  0
 12 26  1  0  0  0  0
 13 15  1  0  0  0  0
 14 27  1  0  0  0  0
 14 28  1  0  0  0  0
 15 29  1  0  0  0  0
 15 30  1  0  0  0  0
 16 17  1  0  0  0  0
 16 18  1  0  0  0  0
 16 19  2  0  0  0  0
 18 20  2  0  0  0  0
 18 21  1  0  0  0  0
 19 22  1  0  0  0  0
 19 36  1  0  0  0  0
 20 23  1  0  0  0  0
 20 37  1  0  0  0  0
 21 39  1  0  0  0  0
 22 23  2  0  0  0  0
 22 40  1  0  0  0  0
 23 41  1  0  0  0  0
M  END
> <PUBCHEM_COMPOUND_CID>
71434234

> <PUBCHEM_CONFORMER_RMSD>
1

> <PUBCHEM_CONFORMER_DIVERSEORDER>
2
120
150
127
178
149
140
83
98
169
126
53
106
103
167
162
135
108
38
99
172
175
176
104
60
61
160
145
1
52
163
3
139
44
77
142
148
93
182
156
30
116
89
164
118
94
170
113
123
119
107
62
141
58
154
181
115
159
80
110
92
49
31
15
43
131
129
21
133
59
173
63
179
101
152
136
183
143
54
78
180
138
35
102
114
134
122
14
153
112
16
64
144
33
65
111
4
28
34
146
155
11
37
23
132
67
90
87
46
66
105
171
157
82
56
130
168
88
70
95
109
151
85
165
177
6
137
29
17
73
40
158
97
51
121
128
22
19
147
68
79
24
166
48
117
76
8
100
124
10
47
41
91
84
9
20
96
42
86
125
45
81
12
71
13
25
55
18
27
174
36
7
72
161
5
32
50
69
26
39
75
74
57

> <PUBCHEM_MMFF94_PARTIAL_CHARGES>
32
1 -0.68
10 0.28
11 0.34
12 0.28
13 0.33
14 0.28
15 0.34
17 0.41
19 -0.15
2 -0.68
20 -0.15
21 0.16
22 -0.15
23 -0.15
3 -0.68
31 0.4
32 0.4
33 0.4
34 0.4
35 0.4
36 0.15
37 0.15
38 0.4
39 0.15
4 -0.68
40 0.15
41 0.15
5 -0.68
6 -0.49
7 -0.46
8 -0.31
9 -0.31

> <PUBCHEM_EFFECTIVE_ROTOR_COUNT>
7

> <PUBCHEM_PHARMACOPHORE_FEATURES>
16
1 1 acceptor
1 1 donor
1 2 acceptor
1 2 donor
1 3 acceptor
1 3 donor
1 4 acceptor
1 4 donor
1 5 acceptor
1 5 donor
1 6 acceptor
1 7 donor
1 9 acceptor
3 7 8 17 cation
6 16 18 19 20 22 23 rings
6 8 9 16 17 18 21 rings

> <PUBCHEM_HEAVY_ATOM_COUNT>
23

> <PUBCHEM_ATOM_DEF_STEREO_COUNT>
0

> <PUBCHEM_ATOM_UDEF_STEREO_COUNT>
3

> <PUBCHEM_BOND_DEF_STEREO_COUNT>
0

> <PUBCHEM_BOND_UDEF_STEREO_COUNT>
1

> <PUBCHEM_ISOTOPIC_ATOM_COUNT>
0

> <PUBCHEM_COMPONENT_COUNT>
1

> <PUBCHEM_CACTVS_TAUTO_COUNT>
2

> <PUBCHEM_CONFORMER_ID>
0441FFFA00000002

> <PUBCHEM_MMFF94_ENERGY>
70.6001

> <PUBCHEM_FEATURE_SELFOVERLAP>
81.241

> <PUBCHEM_SHAPE_FINGERPRINT>
10411042 1 18121218955947761371
11045977 3 18131344241903690976
11315181 36 18187085078837260765
11405975 8 18342461499543982537
11796584 16 18408605864060415650
12107183 9 17683232573849234769
12236239 1 17894914039762636092
12516196 113 18131631184199786792
12616971 3 17240488026404528806
13167823 11 18187085100095975263
13533116 47 17631451177114212102
13590594 115 16805323271409000748
14251764 18 18187366544844150909
15021287 119 17240490190767762125
15042514 8 18191873534293410115
15183329 4 17894907421202267198
15537594 2 17530679888129097346
15788980 27 18259990387354585013
17093844 174 18335415777034546537
17492 89 17974009750039216779
17844677 252 18411425050106706841
18393751 57 16258391330099194281
19489759 90 18272650143305215369
19784866 140 14779536873163713420
21033648 29 17060042731794159114
21065198 57 18268429203854695057
21267235 1 18334580183322208955
21279426 13 18197218040317174751
21315763 178 17821722824031358450
22224240 67 15913320296142715366
23402539 116 18341608222818089949
23536379 177 18040154007022874228
23559900 14 18341607157223296649
3004659 81 18261117366078889014
335352 9 18410008841314027101
4073 2 18041564749551171746
4214541 1 18408886252383708333
44062 13 18340772636693685311
5104073 3 18268999850563610849
5385378 56 18268438923809025227
559249 180 18334293167220670259
573450 72 18333446569158191435
59755656 215 18341337674032841886
6328613 192 18334298694912431500
67856867 119 18189057662922492228
7226269 152 18272932683207482313

> <PUBCHEM_SHAPE_MULTIPOLES>
424.06
16.33
2.14
0.96
13.06
0.34
0.08
1.88
-0.45
-2.41
-0.21
1.07
-0.25
0.2

> <PUBCHEM_SHAPE_SELFOVERLAP>
887.914

> <PUBCHEM_SHAPE_VOLUME>
239

> <PUBCHEM_COORDINATE_TYPE>
2
5
10