71777426
  -OEChem-05072106003D

 43 42  0     1  0  0  0  0  0999 V2000
    1.7254    0.2235    1.5228 O   0  0  0  0  0  0  0  0  0  0  0  0
    2.9188    2.4951    0.1506 O   0  0  0  0  0  0  0  0  0  0  0  0
    3.6430   -0.4846   -1.5005 O   0  0  0  0  0  0  0  0  0  0  0  0
    0.4495    3.3160    0.6267 O   0  0  0  0  0  0  0  0  0  0  0  0
   -4.4615    0.7403   -1.1024 O   0  0  0  0  0  0  0  0  0  0  0  0
    2.6163   -2.7124   -0.0593 O   0  0  0  0  0  0  0  0  0  0  0  0
   -3.7087    1.5869    0.8622 O   0  0  0  0  0  0  0  0  0  0  0  0
   -1.1795    0.6314    0.2196 N   0  0  0  0  0  0  0  0  0  0  0  0
   -2.5786   -1.4104    0.3343 C   0  0  0  0  0  0  0  0  0  0  0  0
   -2.3425   -0.0475   -0.3359 C   0  0  1  0  0  0  0  0  0  0  0  0
   -1.4115   -2.4153    0.2428 C   0  0  0  0  0  0  0  0  0  0  0  0
    2.0054    0.2406    0.1167 C   0  0  1  0  0  0  0  0  0  0  0  0
    1.8934    1.6819   -0.3995 C   0  0  1  0  0  0  0  0  0  0  0  0
   -0.6779    1.6432   -0.6994 C   0  0  0  0  0  0  0  0  0  0  0  0
    3.3900   -0.4015   -0.0928 C   0  0  1  0  0  0  0  0  0  0  0  0
    0.5372    2.3151   -0.0858 C   0  0  0  0  0  0  0  0  0  0  0  0
   -1.7731   -3.6959    1.0012 C   0  0  0  0  0  0  0  0  0  0  0  0
   -1.0495   -2.7572   -1.2029 C   0  0  0  0  0  0  0  0  0  0  0  0
   -3.5466    0.8502   -0.1021 C   0  0  0  0  0  0  0  0  0  0  0  0
    3.5503   -1.7994    0.5037 C   0  0  0  0  0  0  0  0  0  0  0  0
   -3.4792   -1.8637   -0.1028 H   0  0  0  0  0  0  0  0  0  0  0  0
   -2.8193   -1.2490    1.3949 H   0  0  0  0  0  0  0  0  0  0  0  0
   -2.2223   -0.1950   -1.4161 H   0  0  0  0  0  0  0  0  0  0  0  0
   -0.5266   -1.9848    0.7270 H   0  0  0  0  0  0  0  0  0  0  0  0
    1.2568   -0.3845   -0.3822 H   0  0  0  0  0  0  0  0  0  0  0  0
    2.0166    1.7121   -1.4872 H   0  0  0  0  0  0  0  0  0  0  0  0
   -1.3996    1.0386    1.1278 H   0  0  0  0  0  0  0  0  0  0  0  0
   -0.3862    1.2119   -1.6637 H   0  0  0  0  0  0  0  0  0  0  0  0
   -1.4208    2.4245   -0.8969 H   0  0  0  0  0  0  0  0  0  0  0  0
    4.1692    0.2281    0.3535 H   0  0  0  0  0  0  0  0  0  0  0  0
   -2.6478   -4.1862    0.5605 H   0  0  0  0  0  0  0  0  0  0  0  0
   -0.9404   -4.4071    0.9822 H   0  0  0  0  0  0  0  0  0  0  0  0
   -1.9988   -3.4763    2.0501 H   0  0  0  0  0  0  0  0  0  0  0  0
   -1.9182   -3.1376   -1.7506 H   0  0  0  0  0  0  0  0  0  0  0  0
   -0.6667   -1.8809   -1.7348 H   0  0  0  0  0  0  0  0  0  0  0  0
   -0.2669   -3.5229   -1.2363 H   0  0  0  0  0  0  0  0  0  0  0  0
    4.5516   -2.1840    0.2819 H   0  0  0  0  0  0  0  0  0  0  0  0
    3.4140   -1.7846    1.5894 H   0  0  0  0  0  0  0  0  0  0  0  0
    0.7845    0.4356    1.6410 H   0  0  0  0  0  0  0  0  0  0  0  0
    2.8663    2.4220    1.1190 H   0  0  0  0  0  0  0  0  0  0  0  0
    3.7848    0.4192   -1.8284 H   0  0  0  0  0  0  0  0  0  0  0  0
   -5.2407    1.3162   -0.9490 H   0  0  0  0  0  0  0  0  0  0  0  0
    2.7723   -3.5758    0.3597 H   0  0  0  0  0  0  0  0  0  0  0  0
  1 12  1  0  0  0  0
  1 39  1  0  0  0  0
  2 13  1  0  0  0  0
  2 40  1  0  0  0  0
  3 15  1  0  0  0  0
  3 41  1  0  0  0  0
  4 16  2  0  0  0  0
  5 19  1  0  0  0  0
  5 42  1  0  0  0  0
  6 20  1  0  0  0  0
  6 43  1  0  0  0  0
  7 19  2  0  0  0  0
  8 10  1  0  0  0  0
  8 14  1  0  0  0  0
  8 27  1  0  0  0  0
  9 10  1  0  0  0  0
  9 11  1  0  0  0  0
  9 21  1  0  0  0  0
  9 22  1  0  0  0  0
 10 19  1  0  0  0  0
 10 23  1  0  0  0  0
 11 17  1  0  0  0  0
 11 18  1  0  0  0  0
 11 24  1  0  0  0  0
 12 13  1  0  0  0  0
 12 15  1  0  0  0  0
 12 25  1  0  0  0  0
 13 16  1  0  0  0  0
 13 26  1  0  0  0  0
 14 16  1  0  0  0  0
 14 28  1  0  0  0  0
 14 29  1  0  0  0  0
 15 20  1  0  0  0  0
 15 30  1  0  0  0  0
 17 31  1  0  0  0  0
 17 32  1  0  0  0  0
 17 33  1  0  0  0  0
 18 34  1  0  0  0  0
 18 35  1  0  0  0  0
 18 36  1  0  0  0  0
 20 37  1  0  0  0  0
 20 38  1  0  0  0  0
M  END
> <PUBCHEM_COMPOUND_CID>
71777426

> <PUBCHEM_CONFORMER_RMSD>
1

> <PUBCHEM_CONFORMER_DIVERSEORDER>
2
17
60
105
39
10
94
86
42
12
102
24
20
52
38
35
80
18
45
40
31
16
27
96
79
9
81
77
62
73
89
8
90
104
63
15
51
92
56
68
44
29
84
83
78
49
88
59
76
50
58
66
43
4
61
22
82
70
103
30
54
23
53
85
36
55
93
99
72
13
65
37
95
97
6
5
19
32
69
48
107
98
14
67
34
64
91
101
7
21
26
75
11
57
33
87
100
71
106
41
28
47
74
3
25
1
46

> <PUBCHEM_MMFF94_PARTIAL_CHARGES>
22
1 -0.68
10 0.33
12 0.28
13 0.34
14 0.33
15 0.28
16 0.45
19 0.66
2 -0.68
20 0.28
27 0.36
3 -0.68
39 0.4
4 -0.57
40 0.4
41 0.4
42 0.5
43 0.4
5 -0.65
6 -0.68
7 -0.57
8 -0.9

> <PUBCHEM_EFFECTIVE_ROTOR_COUNT>
10

> <PUBCHEM_PHARMACOPHORE_FEATURES>
15
1 1 acceptor
1 1 donor
1 2 acceptor
1 2 donor
1 3 acceptor
1 3 donor
1 4 acceptor
1 5 acceptor
1 6 acceptor
1 6 donor
1 7 acceptor
1 8 cation
1 8 donor
3 11 17 18 hydrophobe
3 5 7 19 anion

> <PUBCHEM_HEAVY_ATOM_COUNT>
20

> <PUBCHEM_ATOM_DEF_STEREO_COUNT>
4

> <PUBCHEM_ATOM_UDEF_STEREO_COUNT>
0

> <PUBCHEM_BOND_DEF_STEREO_COUNT>
0

> <PUBCHEM_BOND_UDEF_STEREO_COUNT>
0

> <PUBCHEM_ISOTOPIC_ATOM_COUNT>
0

> <PUBCHEM_COMPONENT_COUNT>
1

> <PUBCHEM_CACTVS_TAUTO_COUNT>
10

> <PUBCHEM_CONFORMER_ID>
04473C9200000002

> <PUBCHEM_MMFF94_ENERGY>
29.3176

> <PUBCHEM_FEATURE_SELFOVERLAP>
76.204

> <PUBCHEM_SHAPE_FINGERPRINT>
10616163 171 18120938570620658198
12500047 106 18265324187418785813
12553582 1 18339367366274989508
12788726 201 18057617460134197496
13140716 1 18338231665405712962
13533116 47 18271802467253957261
14178342 30 18194392527309802976
14223421 5 17977948208878554485
14251705 54 18048039863209988386
14251757 5 18337408045207557276
15415430 112 18335713770740307758
16752209 62 18118109282584940237
17093844 170 18123745362188035074
19591789 44 18264488382503386411
19930381 70 18120933902334767867
20442098 301 18053947530500700399
20645477 70 18334284379675397765
23558518 356 17970345042970453067
23559900 14 18341604970911077400
34934 24 18408598180416326232
74978 22 18338516451565195521
7832392 63 18337673117387600976
9709674 26 18195243549530844759

> <PUBCHEM_SHAPE_MULTIPOLES>
365.52
6.85
4.19
1.06
0.42
1.67
-0.08
0.13
-0.57
0.37
0.58
0
0.26
0.32

> <PUBCHEM_SHAPE_SELFOVERLAP>
703.868

> <PUBCHEM_SHAPE_VOLUME>
222.3

> <PUBCHEM_COORDINATE_TYPE>
2
5
10