71777424
  -OEChem-05072106003D

 34 33  0     1  0  0  0  0  0999 V2000
   -2.5853    1.4220   -1.4614 O   0  0  0  0  0  0  0  0  0  0  0  0
   -2.1445    1.7571    1.2061 O   0  0  0  0  0  0  0  0  0  0  0  0
   -4.1779    0.0049    0.3990 O   0  0  0  0  0  0  0  0  0  0  0  0
   -3.8671   -2.9706    0.0025 O   0  0  0  0  0  0  0  0  0  0  0  0
    0.2563    2.5911    0.4721 O   0  0  0  0  0  0  0  0  0  0  0  0
    3.7743   -2.2930   -0.5226 O   0  0  0  0  0  0  0  0  0  0  0  0
    3.2432   -1.3178    1.4597 O   0  0  0  0  0  0  0  0  0  0  0  0
    2.3758    0.9055    0.0007 N   0  0  0  0  0  0  0  0  0  0  0  0
   -2.0696    0.2966   -0.7379 C   0  0  1  0  0  0  0  0  0  0  0  0
   -1.3522    0.7971    0.5234 C   0  0  1  0  0  0  0  0  0  0  0  0
   -3.2448   -0.6602   -0.4609 C   0  0  1  0  0  0  0  0  0  0  0  0
    0.0151    1.4103    0.2181 C   0  0  0  0  0  0  0  0  0  0  0  0
    1.0431    0.4856   -0.4084 C   0  0  0  0  0  0  0  0  0  0  0  0
   -2.8573   -1.9867    0.1915 C   0  0  0  0  0  0  0  0  0  0  0  0
    3.3951    0.0362   -0.5717 C   0  0  1  0  0  0  0  0  0  0  0  0
    4.7400    0.7501   -0.5692 C   0  0  0  0  0  0  0  0  0  0  0  0
    3.4557   -1.2280    0.2590 C   0  0  0  0  0  0  0  0  0  0  0  0
   -1.3726   -0.2203   -1.4063 H   0  0  0  0  0  0  0  0  0  0  0  0
   -1.1652   -0.0250    1.2220 H   0  0  0  0  0  0  0  0  0  0  0  0
   -3.7832   -0.8554   -1.3964 H   0  0  0  0  0  0  0  0  0  0  0  0
    0.9200    0.5351   -1.4957 H   0  0  0  0  0  0  0  0  0  0  0  0
    0.8388   -0.5344   -0.0661 H   0  0  0  0  0  0  0  0  0  0  0  0
   -2.7077   -1.8687    1.2696 H   0  0  0  0  0  0  0  0  0  0  0  0
   -1.9388   -2.3770   -0.2584 H   0  0  0  0  0  0  0  0  0  0  0  0
    3.1419   -0.2173   -1.6090 H   0  0  0  0  0  0  0  0  0  0  0  0
    2.5259    1.8629   -0.3190 H   0  0  0  0  0  0  0  0  0  0  0  0
   -1.8301    1.9842   -1.7043 H   0  0  0  0  0  0  0  0  0  0  0  0
   -2.3686    2.4609    0.5736 H   0  0  0  0  0  0  0  0  0  0  0  0
   -4.4230    0.8423   -0.0305 H   0  0  0  0  0  0  0  0  0  0  0  0
    5.0468    1.0274    0.4461 H   0  0  0  0  0  0  0  0  0  0  0  0
    5.5219    0.0990   -0.9760 H   0  0  0  0  0  0  0  0  0  0  0  0
    4.7098    1.6597   -1.1788 H   0  0  0  0  0  0  0  0  0  0  0  0
   -3.5566   -3.7852    0.4332 H   0  0  0  0  0  0  0  0  0  0  0  0
    3.8139   -3.1262   -0.0062 H   0  0  0  0  0  0  0  0  0  0  0  0
  1  9  1  0  0  0  0
  1 27  1  0  0  0  0
  2 10  1  0  0  0  0
  2 28  1  0  0  0  0
  3 11  1  0  0  0  0
  3 29  1  0  0  0  0
  4 14  1  0  0  0  0
  4 33  1  0  0  0  0
  5 12  2  0  0  0  0
  6 17  1  0  0  0  0
  6 34  1  0  0  0  0
  7 17  2  0  0  0  0
  8 13  1  0  0  0  0
  8 15  1  0  0  0  0
  8 26  1  0  0  0  0
  9 10  1  0  0  0  0
  9 11  1  0  0  0  0
  9 18  1  0  0  0  0
 10 12  1  0  0  0  0
 10 19  1  0  0  0  0
 11 14  1  0  0  0  0
 11 20  1  0  0  0  0
 12 13  1  0  0  0  0
 13 21  1  0  0  0  0
 13 22  1  0  0  0  0
 14 23  1  0  0  0  0
 14 24  1  0  0  0  0
 15 16  1  0  0  0  0
 15 17  1  0  0  0  0
 15 25  1  0  0  0  0
 16 30  1  0  0  0  0
 16 31  1  0  0  0  0
 16 32  1  0  0  0  0
M  END
> <PUBCHEM_COMPOUND_CID>
71777424

> <PUBCHEM_CONFORMER_RMSD>
0.8

> <PUBCHEM_CONFORMER_DIVERSEORDER>
1
60
13
94
115
55
117
41
37
135
14
157
110
16
153
17
98
114
40
113
69
78
149
62
64
162
97
121
161
49
104
118
155
163
12
106
101
144
87
7
8
152
96
61
93
103
138
156
88
70
38
36
77
133
52
142
168
120
48
105
148
102
45
43
5
158
131
67
65
6
44
90
132
85
167
83
22
33
109
47
18
160
99
122
141
26
170
143
119
51
53
23
58
24
15
136
71
54
166
75
81
32
42
130
86
107
39
84
59
76
154
30
116
20
128
11
10
145
80
34
159
63
111
73
126
56
79
4
74
19
171
9
35
140
139
147
150
165
57
31
108
21
100
127
50
124
82
72
164
28
2
146
29
91
27
68
89
92
112
169
95
123
125
25
66
46
134
3
151
137
129

> <PUBCHEM_MMFF94_PARTIAL_CHARGES>
22
1 -0.68
10 0.34
11 0.28
12 0.45
13 0.33
14 0.28
15 0.33
17 0.66
2 -0.68
26 0.36
27 0.4
28 0.4
29 0.4
3 -0.68
33 0.4
34 0.5
4 -0.68
5 -0.57
6 -0.65
7 -0.57
8 -0.9
9 0.28

> <PUBCHEM_EFFECTIVE_ROTOR_COUNT>
8

> <PUBCHEM_PHARMACOPHORE_FEATURES>
14
1 1 acceptor
1 1 donor
1 2 acceptor
1 2 donor
1 3 acceptor
1 3 donor
1 4 acceptor
1 4 donor
1 5 acceptor
1 6 acceptor
1 7 acceptor
1 8 cation
1 8 donor
3 6 7 17 anion

> <PUBCHEM_HEAVY_ATOM_COUNT>
17

> <PUBCHEM_ATOM_DEF_STEREO_COUNT>
4

> <PUBCHEM_ATOM_UDEF_STEREO_COUNT>
0

> <PUBCHEM_BOND_DEF_STEREO_COUNT>
0

> <PUBCHEM_BOND_UDEF_STEREO_COUNT>
0

> <PUBCHEM_ISOTOPIC_ATOM_COUNT>
0

> <PUBCHEM_COMPONENT_COUNT>
1

> <PUBCHEM_CACTVS_TAUTO_COUNT>
10

> <PUBCHEM_CONFORMER_ID>
04473C9000000001

> <PUBCHEM_MMFF94_ENERGY>
23.8415

> <PUBCHEM_FEATURE_SELFOVERLAP>
71.146

> <PUBCHEM_SHAPE_FINGERPRINT>
10616163 171 18342182180213800902
12553582 1 18129092488812737806
12824470 246 18410013281861662251
14251705 54 18411982489706979086
14252887 29 17632026333432727900
15239191 94 18410576188548990178
15375462 189 18337679714430987489
18915474 69 18335424577754962166
19107657 162 18130792260859003974
20279233 1 16588032290496349800
20281475 54 18409450318759692149
20291156 8 18411701006134617214
20645477 70 18187926110922622518
21054139 6 18261395602808812830
21503847 285 11815897864658780862
22485316 2 18408603673225986148
22646028 28 18340767044587860230
23559900 14 18340760533285941144
238078 22 18340215196766079572
27216 239 9871744698301066599
5902787 121 18341612667534150029

> <PUBCHEM_SHAPE_MULTIPOLES>
303.79
9.04
2.58
1.01
3.48
1.03
-0.04
4.58
0.75
-1.14
-0.31
-0.03
-0.17
-0.27

> <PUBCHEM_SHAPE_SELFOVERLAP>
586.761

> <PUBCHEM_SHAPE_VOLUME>
183.5

> <PUBCHEM_COORDINATE_TYPE>
2
5
10