719
  -OEChem-05072106003D

 29 29  0     1  0  0  0  0  0999 V2000
    3.6097   -0.0184    0.0103 P   0  0  0  0  0  0  0  0  0  0  0  0
   -1.1925    1.0280   -0.6845 O   0  0  0  0  0  0  0  0  0  0  0  0
   -2.4645   -1.7454   -0.9337 O   0  0  0  0  0  0  0  0  0  0  0  0
    0.0574   -0.8048    1.4495 O   0  0  0  0  0  0  0  0  0  0  0  0
   -2.2150    1.0045    1.4269 O   0  0  0  0  0  0  0  0  0  0  0  0
    2.2267   -0.2335   -0.8026 O   0  0  0  0  0  0  0  0  0  0  0  0
   -4.6363    0.2383    0.2138 O   0  0  0  0  0  0  0  0  0  0  0  0
    3.1280    0.1864    1.5404 O   0  0  0  0  0  0  0  0  0  0  0  0
    4.0641    1.4673   -0.4385 O   0  0  0  0  0  0  0  0  0  0  0  0
    4.6417   -1.0875   -0.1998 O   0  0  0  0  0  0  0  0  0  0  0  0
   -1.9705   -1.0375    0.1966 C   0  0  1  0  0  0  0  0  0  0  0  0
   -0.4537   -1.0746    0.1510 C   0  0  1  0  0  0  0  0  0  0  0  0
   -2.2592    0.4659    0.1025 C   0  0  2  0  0  0  0  0  0  0  0  0
   -0.1443    0.0517   -0.8320 C   0  0  2  0  0  0  0  0  0  0  0  0
    1.2001    0.7341   -0.6572 C   0  0  0  0  0  0  0  0  0  0  0  0
   -3.5917    0.8255   -0.5427 C   0  0  0  0  0  0  0  0  0  0  0  0
   -2.3853   -1.4854    1.1062 H   0  0  0  0  0  0  0  0  0  0  0  0
   -0.0501   -2.0339   -0.1894 H   0  0  0  0  0  0  0  0  0  0  0  0
   -0.2236   -0.3418   -1.8536 H   0  0  0  0  0  0  0  0  0  0  0  0
    1.2546    1.2496    0.3077 H   0  0  0  0  0  0  0  0  0  0  0  0
    1.3325    1.5031   -1.4263 H   0  0  0  0  0  0  0  0  0  0  0  0
   -3.6551    0.4810   -1.5797 H   0  0  0  0  0  0  0  0  0  0  0  0
   -3.7417    1.9108   -0.5498 H   0  0  0  0  0  0  0  0  0  0  0  0
   -2.2123   -2.6785   -0.8274 H   0  0  0  0  0  0  0  0  0  0  0  0
    1.0242   -0.8993    1.4094 H   0  0  0  0  0  0  0  0  0  0  0  0
   -1.5612    0.5096    1.9476 H   0  0  0  0  0  0  0  0  0  0  0  0
   -4.5630    0.5718    1.1245 H   0  0  0  0  0  0  0  0  0  0  0  0
    3.8059    0.2695    2.2444 H   0  0  0  0  0  0  0  0  0  0  0  0
    4.9378    1.8047   -0.1471 H   0  0  0  0  0  0  0  0  0  0  0  0
  1  6  1  0  0  0  0
  1  8  1  0  0  0  0
  1  9  1  0  0  0  0
  1 10  2  0  0  0  0
  2 13  1  0  0  0  0
  2 14  1  0  0  0  0
  3 11  1  0  0  0  0
  3 24  1  0  0  0  0
  4 12  1  0  0  0  0
  4 25  1  0  0  0  0
  5 13  1  0  0  0  0
  5 26  1  0  0  0  0
  6 15  1  0  0  0  0
  7 16  1  0  0  0  0
  7 27  1  0  0  0  0
  8 28  1  0  0  0  0
  9 29  1  0  0  0  0
 11 12  1  0  0  0  0
 11 13  1  0  0  0  0
 11 17  1  0  0  0  0
 12 14  1  0  0  0  0
 12 18  1  0  0  0  0
 13 16  1  0  0  0  0
 14 15  1  0  0  0  0
 14 19  1  0  0  0  0
 15 20  1  0  0  0  0
 15 21  1  0  0  0  0
 16 22  1  0  0  0  0
 16 23  1  0  0  0  0
M  END
> <PUBCHEM_COMPOUND_CID>
719

> <PUBCHEM_CONFORMER_RMSD>
0.6

> <PUBCHEM_CONFORMER_DIVERSEORDER>
3
304
300
97
299
276
71
309
156
39
2
80
88
133
233
292
208
324
163
242
26
322
148
144
327
308
43
24
142
243
188
280
112
314
64
205
6
174
108
312
287
109
65
85
187
41
212
245
260
33
54
313
200
239
289
23
275
258
113
75
228
268
310
86
224
176
84
178
206
323
204
48
269
227
171
170
279
319
183
129
60
117
158
110
190
51
267
143
318
265
128
50
15
271
38
216
11
325
186
288
238
215
297
223
9
55
218
326
40
273
22
44
261
293
262
254
63
290
20
306
157
160
13
193
266
46
255
141
121
62
189
180
126
298
118
47
225
211
161
139
153
221
145
103
285
82
226
237
49
247
17
96
127
164
181
197
152
303
53
87
305
36
14
105
123
10
159
37
286
220
70
150
230
294
202
21
122
83
320
99
28
120
301
203
151
134
42
34
72
235
259
277
130
172
201
74
58
114
155
101
248
98
125
168
140
257
278
45
78
1
119
30
61
213
250
59
124
302
18
195
79
252
31
166
173
68
95
194
246
146
198
199
175
291
191
104
107
116
177
136
251
234
102
7
100
249
182
154
91
165
25
207
135
137
32
162
35
272
138
270
256
67
115
90
69
241
66
282
92
240
192
184
131
229
179
196
8
316
81
73
147
19
94
222
149
57
283
52
167
214
12
4
311
16
209
296
29
210
169
76
185
236
56
253
244
231
77
5
27
232
317
106
111
93
321
132
274
89
295
264
217
307
219
263
284
281
315

> <PUBCHEM_MMFF94_PARTIAL_CHARGES>
22
1 1.51
10 -0.7
11 0.28
12 0.28
13 0.56
14 0.28
15 0.28
16 0.28
2 -0.56
24 0.4
25 0.4
26 0.4
27 0.4
28 0.5
29 0.5
3 -0.68
4 -0.68
5 -0.68
6 -0.55
7 -0.68
8 -0.77
9 -0.77

> <PUBCHEM_EFFECTIVE_ROTOR_COUNT>
5

> <PUBCHEM_PHARMACOPHORE_FEATURES>
14
1 10 acceptor
1 2 acceptor
1 3 acceptor
1 3 donor
1 4 acceptor
1 4 donor
1 5 acceptor
1 5 donor
1 7 acceptor
1 7 donor
1 8 acceptor
1 9 acceptor
4 1 8 9 10 anion
5 2 11 12 13 14 rings

> <PUBCHEM_HEAVY_ATOM_COUNT>
16

> <PUBCHEM_ATOM_DEF_STEREO_COUNT>
0

> <PUBCHEM_ATOM_UDEF_STEREO_COUNT>
4

> <PUBCHEM_BOND_DEF_STEREO_COUNT>
0

> <PUBCHEM_BOND_UDEF_STEREO_COUNT>
0

> <PUBCHEM_ISOTOPIC_ATOM_COUNT>
0

> <PUBCHEM_COMPONENT_COUNT>
1

> <PUBCHEM_CACTVS_TAUTO_COUNT>
1

> <PUBCHEM_CONFORMER_ID>
000002CF00000003

> <PUBCHEM_MMFF94_ENERGY>
4.8734

> <PUBCHEM_FEATURE_SELFOVERLAP>
71.141

> <PUBCHEM_SHAPE_FINGERPRINT>
11132069 177 18335132103229797868
124424 183 17561083588298003114
12932764 1 17385714799435211908
13024252 1 16370727045691588719
13675066 3 17894354375443430525
14144814 61 17894910754524098242
14713566 1 18342457049867984979
14943859 89 18335139795458079255
15048467 5 13398636018252795923
15775835 57 18186236234069302592
16945 1 18336564732610644621
18186145 218 17385718119339495094
200 152 17775279478184753751
20112054 13 17313104167806512004
20279233 1 17203333312172265438
20528008 55 18201717357756701276
23402539 116 17846211134183554629
23557571 272 17774729782627196799
23559900 14 18131070442096802494
265663 24 18131348592193858727
351380 180 17203604861453129096
57812782 119 17060339621735483494
69090 78 18412824681375033863
74978 22 17531816873425444006

> <PUBCHEM_SHAPE_MULTIPOLES>
280.3
7.98
1.32
1.13
4.26
0.13
-0.35
-0.84
-0.1
-0.09
0.15
0.01
0.06
-0.29

> <PUBCHEM_SHAPE_SELFOVERLAP>
552.011

> <PUBCHEM_SHAPE_VOLUME>
169.7

> <PUBCHEM_COORDINATE_TYPE>
2
5
10