77519398
  -OEChem-05072106003D

 41 42  0     1  0  0  0  0  0999 V2000
    4.6395   -1.4037    0.8929 O   0  0  0  0  0  0  0  0  0  0  0  0
    2.7023   -0.1894    2.5513 O   0  0  0  0  0  0  0  0  0  0  0  0
    3.7150   -1.6799   -1.9254 O   0  0  0  0  0  0  0  0  0  0  0  0
    4.9204    0.9715   -2.5381 O   0  0  0  0  0  0  0  0  0  0  0  0
    1.1919    3.0077    1.5005 O   0  0  0  0  0  0  0  0  0  0  0  0
    0.5746   -0.0309    0.6692 N   0  0  0  0  0  0  0  0  0  0  0  0
   -0.6188    0.4444    0.2741 N   0  0  0  0  0  0  0  0  0  0  0  0
   -1.5349   -1.7062    0.5091 N   0  0  0  0  0  0  0  0  0  0  0  0
   -2.5841   -2.5690    0.4658 N   0  0  0  0  0  0  0  0  0  0  0  0
    3.4175   -0.9052    0.3458 C   0  0  1  0  0  0  0  0  0  0  0  0
    2.9176    0.2557    1.2203 C   0  0  1  0  0  0  0  0  0  0  0  0
    3.6624   -0.5009   -1.1194 C   0  0  1  0  0  0  0  0  0  0  0  0
    1.5788    0.7939    0.7090 C   0  0  0  0  0  0  0  0  0  0  0  0
    4.9696    0.2691   -1.3002 C   0  0  0  0  0  0  0  0  0  0  0  0
    1.5222    2.2659    0.3447 C   0  0  0  0  0  0  0  0  0  0  0  0
   -2.9775    0.1151   -0.1399 C   0  0  0  0  0  0  0  0  0  0  0  0
   -1.7367   -0.4040    0.2133 C   0  0  0  0  0  0  0  0  0  0  0  0
   -4.0605   -0.7755   -0.1848 C   0  0  0  0  0  0  0  0  0  0  0  0
   -3.1798    1.4712   -0.4465 C   0  0  0  0  0  0  0  0  0  0  0  0
   -5.3357   -0.3018   -0.5361 C   0  0  0  0  0  0  0  0  0  0  0  0
   -3.8072   -2.1066    0.1274 C   0  0  0  0  0  0  0  0  0  0  0  0
   -4.4503    1.9317   -0.7940 C   0  0  0  0  0  0  0  0  0  0  0  0
   -5.5262    1.0470   -0.8388 C   0  0  0  0  0  0  0  0  0  0  0  0
    2.7043   -1.7377    0.3919 H   0  0  0  0  0  0  0  0  0  0  0  0
    3.6636    1.0547    1.2674 H   0  0  0  0  0  0  0  0  0  0  0  0
    2.8171    0.0791   -1.5045 H   0  0  0  0  0  0  0  0  0  0  0  0
    5.8332   -0.4031   -1.3311 H   0  0  0  0  0  0  0  0  0  0  0  0
    5.1141    1.0157   -0.5148 H   0  0  0  0  0  0  0  0  0  0  0  0
    0.7943    2.4611   -0.4466 H   0  0  0  0  0  0  0  0  0  0  0  0
    2.5045    2.5865   -0.0160 H   0  0  0  0  0  0  0  0  0  0  0  0
    4.9190   -2.1560    0.3435 H   0  0  0  0  0  0  0  0  0  0  0  0
    2.4892    0.5911    3.0910 H   0  0  0  0  0  0  0  0  0  0  0  0
    3.8781   -1.3991   -2.8422 H   0  0  0  0  0  0  0  0  0  0  0  0
   -0.7964    1.4316    0.4066 H   0  0  0  0  0  0  0  0  0  0  0  0
    5.7622    1.4499   -2.6281 H   0  0  0  0  0  0  0  0  0  0  0  0
   -2.3783    2.2033   -0.4402 H   0  0  0  0  0  0  0  0  0  0  0  0
   -6.1861   -0.9785   -0.5760 H   0  0  0  0  0  0  0  0  0  0  0  0
    1.2349    3.9488    1.2599 H   0  0  0  0  0  0  0  0  0  0  0  0
   -4.5905   -2.8576    0.1159 H   0  0  0  0  0  0  0  0  0  0  0  0
   -4.6010    2.9806   -1.0328 H   0  0  0  0  0  0  0  0  0  0  0  0
   -6.5142    1.4074   -1.1103 H   0  0  0  0  0  0  0  0  0  0  0  0
  1 10  1  0  0  0  0
  1 31  1  0  0  0  0
  2 11  1  0  0  0  0
  2 32  1  0  0  0  0
  3 12  1  0  0  0  0
  3 33  1  0  0  0  0
  4 14  1  0  0  0  0
  4 35  1  0  0  0  0
  5 15  1  0  0  0  0
  5 38  1  0  0  0  0
  6  7  1  0  0  0  0
  6 13  2  0  0  0  0
  7 17  1  0  0  0  0
  7 34  1  0  0  0  0
  8  9  1  0  0  0  0
  8 17  2  0  0  0  0
  9 21  2  0  0  0  0
 10 11  1  0  0  0  0
 10 12  1  0  0  0  0
 10 24  1  0  0  0  0
 11 13  1  0  0  0  0
 11 25  1  0  0  0  0
 12 14  1  0  0  0  0
 12 26  1  0  0  0  0
 13 15  1  0  0  0  0
 14 27  1  0  0  0  0
 14 28  1  0  0  0  0
 15 29  1  0  0  0  0
 15 30  1  0  0  0  0
 16 17  1  0  0  0  0
 16 18  1  0  0  0  0
 16 19  2  0  0  0  0
 18 20  2  0  0  0  0
 18 21  1  0  0  0  0
 19 22  1  0  0  0  0
 19 36  1  0  0  0  0
 20 23  1  0  0  0  0
 20 37  1  0  0  0  0
 21 39  1  0  0  0  0
 22 23  2  0  0  0  0
 22 40  1  0  0  0  0
 23 41  1  0  0  0  0
M  END
> <PUBCHEM_COMPOUND_CID>
77519398

> <PUBCHEM_CONFORMER_RMSD>
0.8

> <PUBCHEM_CONFORMER_DIVERSEORDER>
1
140
176
63
73
142
138
105
203
60
199
72
186
226
172
209
48
208
175
227
119
205
67
117
12
71
100
148
170
174
111
192
196
139
160
18
200
198
51
166
197
173
184
81
86
171
64
169
26
213
201
133
53
76
135
179
191
164
217
78
151
123
145
206
56
177
15
83
149
70
223
147
97
47
132
38
112
212
156
89
116
52
106
85
222
157
94
108
31
114
45
120
101
152
40
87
74
98
32
75
43
95
167
91
204
187
150
19
216
181
8
193
61
188
23
20
211
68
180
144
183
215
36
131
229
220
143
218
17
77
134
58
39
125
102
50
207
121
69
225
136
42
115
54
109
62
146
130
66
99
25
122
124
141
34
154
9
107
168
80
224
84
79
104
190
195
127
35
4
163
29
46
14
126
28
3
59
65
194
96
103
159
21
11
113
90
161
178
10
82
162
30
27
5
22
49
93
129
158
214
24
57
13
182
219
210
228
41
185
155
221
33
165
137
153
16
2
128
202
189
6
7
92
37
44
118
55
88
110

> <PUBCHEM_MMFF94_PARTIAL_CHARGES>
32
1 -0.68
10 0.28
11 0.34
12 0.28
13 0.33
14 0.28
15 0.34
17 0.41
19 -0.15
2 -0.68
20 -0.15
21 0.16
22 -0.15
23 -0.15
3 -0.68
31 0.4
32 0.4
33 0.4
34 0.4
35 0.4
36 0.15
37 0.15
38 0.4
39 0.15
4 -0.68
40 0.15
41 0.15
5 -0.68
6 -0.49
7 -0.46
8 -0.31
9 -0.31

> <PUBCHEM_EFFECTIVE_ROTOR_COUNT>
7

> <PUBCHEM_PHARMACOPHORE_FEATURES>
16
1 1 acceptor
1 1 donor
1 2 acceptor
1 2 donor
1 3 acceptor
1 3 donor
1 4 acceptor
1 4 donor
1 5 acceptor
1 5 donor
1 6 acceptor
1 7 donor
1 9 acceptor
3 7 8 17 cation
6 16 18 19 20 22 23 rings
6 8 9 16 17 18 21 rings

> <PUBCHEM_HEAVY_ATOM_COUNT>
23

> <PUBCHEM_ATOM_DEF_STEREO_COUNT>
3

> <PUBCHEM_ATOM_UDEF_STEREO_COUNT>
0

> <PUBCHEM_BOND_DEF_STEREO_COUNT>
1

> <PUBCHEM_BOND_UDEF_STEREO_COUNT>
0

> <PUBCHEM_ISOTOPIC_ATOM_COUNT>
0

> <PUBCHEM_COMPONENT_COUNT>
1

> <PUBCHEM_CACTVS_TAUTO_COUNT>
2

> <PUBCHEM_CONFORMER_ID>
049EDA2600000001

> <PUBCHEM_MMFF94_ENERGY>
71.4417

> <PUBCHEM_FEATURE_SELFOVERLAP>
81.244

> <PUBCHEM_SHAPE_FINGERPRINT>
12236239 1 17240201019531059031
12390115 104 18269557136088580097
12596602 18 16443353070140432777
12616971 3 16732975419022119370
12788726 201 18269280071236187056
13533116 47 13542460960385248510
13583140 156 16055733525474515459
13690498 29 18194413400967140079
13911852 28 14619413831191101852
14251757 5 18337680719453925885
14251764 30 12534533111471248564
14366163 111 17530688706018624724
14386348 63 18131631183951957686
14866123 147 17337317363696876347
17349148 13 13973966519167101781
17804303 29 18408879651182472225
17870717 6 18272377468727225983
1813 80 15410354195032114828
20645477 70 16989122067481909110
20871999 31 18409459084898498702
21033650 10 17896898551351596676
21069387 34 15626221329491599693
21285901 2 18058171626720951156
21401589 2 13191490350861660532
2215653 11 18131348596784212247
22224240 67 16056295299414513170
23175994 123 17632855343830905169
23559900 14 18271521000334535337
3004659 81 18188207599000909178
3298306 158 18342453699688804983
46194498 28 18126013890714507724
543368 44 17313674848817137125
6442390 28 10881696684394716904
6823239 73 18342453785645569080
960060 61 18272656723121338278
9709674 26 18268138945838747267

> <PUBCHEM_SHAPE_MULTIPOLES>
424.06
12.73
2.39
1.64
1.14
0.34
0.21
-0.4
5.58
1.13
-0.38
-3.15
0.26
0.7

> <PUBCHEM_SHAPE_SELFOVERLAP>
887.412

> <PUBCHEM_SHAPE_VOLUME>
239.2

> <PUBCHEM_COORDINATE_TYPE>
2
5
10