86289119
  -OEChem-05072106003D

 26 26  0     1  0  0  0  0  0999 V2000
    2.9715    0.4061    0.0503 S   0  0  0  0  0  0  0  0  0  0  0  0
   -0.2264    0.4940    0.6689 O   0  0  0  0  0  0  0  0  0  0  0  0
   -0.9397   -2.5857    0.4927 O   0  0  0  0  0  0  0  0  0  0  0  0
   -1.5370   -0.0712   -1.9937 O   0  0  0  0  0  0  0  0  0  0  0  0
   -2.2722   -0.2308    1.5666 O   0  0  0  0  0  0  0  0  0  0  0  0
   -3.6147    1.5218   -0.1812 O   0  0  0  0  0  0  0  0  0  0  0  0
    3.4257   -0.7639    0.8028 O   0  5  0  0  0  0  0  0  0  0  0  0
    3.8602    0.8197   -1.0366 O   0  0  0  0  0  0  0  0  0  0  0  0
    2.4549    1.5018    0.8715 O   0  0  0  0  0  0  0  0  0  0  0  0
    0.4838   -0.6636    0.1889 C   0  0  1  0  0  0  0  0  0  0  0  0
   -0.5462   -1.5927   -0.4514 C   0  0  2  0  0  0  0  0  0  0  0  0
   -1.7287   -0.6818   -0.7246 C   0  0  1  0  0  0  0  0  0  0  0  0
   -1.6320    0.3314    0.4182 C   0  0  2  0  0  0  0  0  0  0  0  0
    1.5423   -0.1804   -0.7924 C   0  0  0  0  0  0  0  0  0  0  0  0
   -2.2414    1.6954    0.1200 C   0  0  0  0  0  0  0  0  0  0  0  0
    0.9372   -1.1462    1.0615 H   0  0  0  0  0  0  0  0  0  0  0  0
   -0.1712   -2.1074   -1.3415 H   0  0  0  0  0  0  0  0  0  0  0  0
   -2.6869   -1.2128   -0.7248 H   0  0  0  0  0  0  0  0  0  0  0  0
    1.1748    0.6396   -1.4183 H   0  0  0  0  0  0  0  0  0  0  0  0
    1.8847   -0.9970   -1.4372 H   0  0  0  0  0  0  0  0  0  0  0  0
   -1.7401    2.1904   -0.7185 H   0  0  0  0  0  0  0  0  0  0  0  0
   -2.1591    2.3557    0.9906 H   0  0  0  0  0  0  0  0  0  0  0  0
   -0.1599   -3.1370    0.6767 H   0  0  0  0  0  0  0  0  0  0  0  0
   -1.5690   -0.7744   -2.6647 H   0  0  0  0  0  0  0  0  0  0  0  0
   -2.4855    0.4911    2.1812 H   0  0  0  0  0  0  0  0  0  0  0  0
   -3.9820    2.4038   -0.3621 H   0  0  0  0  0  0  0  0  0  0  0  0
  1  7  1  0  0  0  0
  1  8  2  0  0  0  0
  1  9  2  0  0  0  0
  1 14  1  0  0  0  0
  2 10  1  0  0  0  0
  2 13  1  0  0  0  0
  3 11  1  0  0  0  0
  3 23  1  0  0  0  0
  4 12  1  0  0  0  0
  4 24  1  0  0  0  0
  5 13  1  0  0  0  0
  5 25  1  0  0  0  0
  6 15  1  0  0  0  0
  6 26  1  0  0  0  0
 10 11  1  0  0  0  0
 10 14  1  0  0  0  0
 10 16  1  0  0  0  0
 11 12  1  0  0  0  0
 11 17  1  0  0  0  0
 12 13  1  0  0  0  0
 12 18  1  0  0  0  0
 13 15  1  0  0  0  0
 14 19  1  0  0  0  0
 14 20  1  0  0  0  0
 15 21  1  0  0  0  0
 15 22  1  0  0  0  0
M  CHG  1   7  -1
M  END
> <PUBCHEM_COMPOUND_CID>
86289119

> <PUBCHEM_CONFORMER_RMSD>
0.6

> <PUBCHEM_CONFORMER_DIVERSEORDER>
1
22
11
17
15
3
23
16
10
20
19
8
18
9
21
2
7
6
13
4
14
12
5

> <PUBCHEM_MMFF94_PARTIAL_CHARGES>
19
1 1.34
10 0.28
11 0.28
12 0.28
13 0.56
14 0.11
15 0.28
2 -0.56
23 0.4
24 0.4
25 0.4
26 0.4
3 -0.68
4 -0.68
5 -0.68
6 -0.68
7 -0.82
8 -0.82
9 -0.82

> <PUBCHEM_EFFECTIVE_ROTOR_COUNT>
4

> <PUBCHEM_PHARMACOPHORE_FEATURES>
14
1 2 acceptor
1 3 acceptor
1 3 donor
1 4 acceptor
1 4 donor
1 5 acceptor
1 5 donor
1 6 acceptor
1 6 donor
1 7 acceptor
1 8 acceptor
1 9 acceptor
4 1 7 8 9 anion
5 2 10 11 12 13 rings

> <PUBCHEM_HEAVY_ATOM_COUNT>
15

> <PUBCHEM_ATOM_DEF_STEREO_COUNT>
3

> <PUBCHEM_ATOM_UDEF_STEREO_COUNT>
1

> <PUBCHEM_BOND_DEF_STEREO_COUNT>
0

> <PUBCHEM_BOND_UDEF_STEREO_COUNT>
0

> <PUBCHEM_ISOTOPIC_ATOM_COUNT>
0

> <PUBCHEM_COMPONENT_COUNT>
1

> <PUBCHEM_CACTVS_TAUTO_COUNT>
1

> <PUBCHEM_CONFORMER_ID>
0524AADF00000001

> <PUBCHEM_MMFF94_ENERGY>
37.3514

> <PUBCHEM_FEATURE_SELFOVERLAP>
71.176

> <PUBCHEM_SHAPE_FINGERPRINT>
12119455 92 17822563907339472237
12138202 97 18131637789484961406
124424 183 18060704962094192470
12932764 1 18341054107380203240
13024252 1 13407066029162678535
15775835 57 18410013213036794156
16945 1 18337113491596649739
18186145 218 17632583725287069792
19868273 293 18131628971938104052
200 152 14346351397747538834
20361792 2 9222934968266638131
20645476 183 18335148604409629740
20653085 51 17918275354765052861
21524375 3 18268988700559328511
23402539 116 18271228474411980613
23557571 272 16270775975169952374
23559900 14 17988651788115818788
25 1 18200597977647267021
305870 269 18263360283119691930
3248919 1 17676478493253145904
369184 2 18411133683973040914
5706482 22 18340481179954165163
7364860 26 17909265780567795335
74978 22 18410289255117122256
8030462 33 18340198708866710694
81228 2 18124886912718736843

> <PUBCHEM_SHAPE_MULTIPOLES>
265.59
5.43
1.8
1.22
3.55
0.48
0.24
-2.47
0.14
-0.87
-0.23
-0.23
0.08
-0.06

> <PUBCHEM_SHAPE_SELFOVERLAP>
531.897

> <PUBCHEM_SHAPE_VOLUME>
157.6

> <PUBCHEM_COORDINATE_TYPE>
2
5
10