87352032
  -OEChem-05072106003D

 30 29  0     1  0  0  0  0  0999 V2000
    3.8571   -0.5680   -0.0275 P   0  0  0  0  0  0  0  0  0  0  0  0
   -1.7671    1.8990    1.2930 O   0  0  0  0  0  0  0  0  0  0  0  0
    0.4434    2.2256   -0.4794 O   0  0  0  0  0  0  0  0  0  0  0  0
    2.6822    0.4690    0.3638 O   0  0  0  0  0  0  0  0  0  0  0  0
   -4.1432    0.0799   -0.0709 O   0  0  0  0  0  0  0  0  0  0  0  0
   -4.1301   -2.5669    0.2936 O   0  0  0  0  0  0  0  0  0  0  0  0
    3.4013   -1.9221    0.7301 O   0  0  0  0  0  0  0  0  0  0  0  0
    3.5758   -0.9005   -1.5849 O   0  0  0  0  0  0  0  0  0  0  0  0
    5.2486   -0.1028    0.2882 O   0  0  0  0  0  0  0  0  0  0  0  0
   -2.1427    1.4149   -1.4238 N   0  0  0  0  0  0  0  0  0  0  0  0
   -1.0563    0.7869    0.7319 C   0  0  2  0  0  0  0  0  0  0  0  0
    0.4093    1.2198    0.5432 C   0  0  1  0  0  0  0  0  0  0  0  0
   -1.7760    0.3075   -0.5408 C   0  0  1  0  0  0  0  0  0  0  0  0
    1.3342    0.0939    0.0928 C   0  0  0  0  0  0  0  0  0  0  0  0
   -3.0471   -0.4682   -0.1916 C   0  0  0  0  0  0  0  0  0  0  0  0
   -2.8893   -1.9680   -0.0174 C   0  0  0  0  0  0  0  0  0  0  0  0
   -1.0801   -0.0037    1.4919 H   0  0  0  0  0  0  0  0  0  0  0  0
    0.7889    1.6888    1.4587 H   0  0  0  0  0  0  0  0  0  0  0  0
   -1.1340   -0.3779   -1.1051 H   0  0  0  0  0  0  0  0  0  0  0  0
    1.2295   -0.0986   -0.9794 H   0  0  0  0  0  0  0  0  0  0  0  0
    1.1124   -0.8199    0.6522 H   0  0  0  0  0  0  0  0  0  0  0  0
   -2.5539    1.0461   -2.2808 H   0  0  0  0  0  0  0  0  0  0  0  0
   -1.3033    1.9173   -1.7087 H   0  0  0  0  0  0  0  0  0  0  0  0
   -2.6770    1.6068    1.4715 H   0  0  0  0  0  0  0  0  0  0  0  0
   -0.0994    2.9704   -0.1681 H   0  0  0  0  0  0  0  0  0  0  0  0
   -2.1874   -2.1625    0.7979 H   0  0  0  0  0  0  0  0  0  0  0  0
   -2.5154   -2.3970   -0.9512 H   0  0  0  0  0  0  0  0  0  0  0  0
   -3.9724   -3.5216    0.3898 H   0  0  0  0  0  0  0  0  0  0  0  0
    4.0056   -2.6947    0.7255 H   0  0  0  0  0  0  0  0  0  0  0  0
    4.2067   -1.4747   -2.0690 H   0  0  0  0  0  0  0  0  0  0  0  0
  1  4  1  0  0  0  0
  1  7  1  0  0  0  0
  1  8  1  0  0  0  0
  1  9  2  0  0  0  0
  2 11  1  0  0  0  0
  2 24  1  0  0  0  0
  3 12  1  0  0  0  0
  3 25  1  0  0  0  0
  4 14  1  0  0  0  0
  5 15  2  0  0  0  0
  6 16  1  0  0  0  0
  6 28  1  0  0  0  0
  7 29  1  0  0  0  0
  8 30  1  0  0  0  0
 10 13  1  0  0  0  0
 10 22  1  0  0  0  0
 10 23  1  0  0  0  0
 11 12  1  0  0  0  0
 11 13  1  0  0  0  0
 11 17  1  0  0  0  0
 12 14  1  0  0  0  0
 12 18  1  0  0  0  0
 13 15  1  0  0  0  0
 13 19  1  0  0  0  0
 14 20  1  0  0  0  0
 14 21  1  0  0  0  0
 15 16  1  0  0  0  0
 16 26  1  0  0  0  0
 16 27  1  0  0  0  0
M  END
> <PUBCHEM_COMPOUND_CID>
87352032

> <PUBCHEM_CONFORMER_RMSD>
0.8

> <PUBCHEM_CONFORMER_DIVERSEORDER>
1
33
94
85
32
111
100
70
7
101
120
54
14
13
24
4
51
36
107
95
80
30
84
109
66
63
11
71
89
103
18
10
29
25
5
31
78
64
45
58
41
23
117
77
68
96
75
19
44
91
104
40
93
87
27
57
113
116
118
46
99
12
16
67
8
110
108
60
43
3
56
90
49
62
76
42
28
79
22
102
114
119
26
47
17
34
20
81
88
55
115
48
38
65
15
21
106
82
98
59
86
39
83
9
50
92
2
52
53
74
112
6
72
35
69
73
105
97
37
61

> <PUBCHEM_MMFF94_PARTIAL_CHARGES>
23
1 1.51
10 -0.99
11 0.28
12 0.28
13 0.33
14 0.28
15 0.45
16 0.34
2 -0.68
22 0.36
23 0.36
24 0.4
25 0.4
28 0.4
29 0.5
3 -0.68
30 0.5
4 -0.55
5 -0.57
6 -0.68
7 -0.77
8 -0.77
9 -0.7

> <PUBCHEM_EFFECTIVE_ROTOR_COUNT>
7

> <PUBCHEM_PHARMACOPHORE_FEATURES>
13
1 10 cation
1 10 donor
1 2 acceptor
1 2 donor
1 3 acceptor
1 3 donor
1 5 acceptor
1 6 acceptor
1 6 donor
1 7 acceptor
1 8 acceptor
1 9 acceptor
4 1 7 8 9 anion

> <PUBCHEM_HEAVY_ATOM_COUNT>
16

> <PUBCHEM_ATOM_DEF_STEREO_COUNT>
3

> <PUBCHEM_ATOM_UDEF_STEREO_COUNT>
0

> <PUBCHEM_BOND_DEF_STEREO_COUNT>
0

> <PUBCHEM_BOND_UDEF_STEREO_COUNT>
0

> <PUBCHEM_ISOTOPIC_ATOM_COUNT>
0

> <PUBCHEM_COMPONENT_COUNT>
1

> <PUBCHEM_CACTVS_TAUTO_COUNT>
10

> <PUBCHEM_CONFORMER_ID>
0534E2E000000001

> <PUBCHEM_MMFF94_ENERGY>
-7.9104

> <PUBCHEM_FEATURE_SELFOVERLAP>
66.031

> <PUBCHEM_SHAPE_FINGERPRINT>
11543360 7 17530968016031059942
12251169 10 13614234910266480273
14251710 61 18343025514190493542
14252887 29 17632301185622738798
17834072 32 9079115570262543498
18915474 69 18187085053125745558
19107657 162 18059859454405280910
19107657 46 18412543184939505622
193927 3 18131081436828107886
20112054 13 10015860985893948288
20281475 54 18335703874956387305
20621476 91 18190717869935470634
20671657 53 18261392294797751957
20711983 138 18201996651380629601
20871999 31 18114455699897704253
21079973 296 18411133675678479586
22485316 2 18408037394910046872
23402539 116 16009022861348944900
23557571 272 18271526382435024236
23559900 14 18341883134568203960
26918003 58 18273209798591550336
4416823 128 18337670944450965547

> <PUBCHEM_SHAPE_MULTIPOLES>
281.19
8.91
2.21
1.04
6.01
0.5
0.22
5.3
0.24
-1.7
-0.23
0.13
-0.22
0.22

> <PUBCHEM_SHAPE_SELFOVERLAP>
527.326

> <PUBCHEM_SHAPE_VOLUME>
174.8

> <PUBCHEM_COORDINATE_TYPE>
2
5
10