88317536
  -OEChem-05072106003D

 25 24  0     1  0  0  0  0  0999 V2000
   -0.4275   -0.1478   -1.6034 O   0  0  0  0  0  0  0  0  0  0  0  0
   -2.2227    0.5639    1.5273 O   0  0  0  0  0  0  0  0  0  0  0  0
    0.5007    2.0990   -0.0872 O   0  0  0  0  0  0  0  0  0  0  0  0
    2.7754    0.8390   -0.5493 O   0  0  0  0  0  0  0  0  0  0  0  0
    3.5519   -1.5873    0.2393 O   0  0  0  0  0  0  0  0  0  0  0  0
   -3.1477   -1.7026   -0.0666 N   0  0  0  0  0  0  0  0  0  0  0  0
   -0.6054   -0.0404   -0.1940 C   0  0  2  0  0  0  0  0  0  0  0  0
   -2.0132    0.5166    0.1157 C   0  0  1  0  0  0  0  0  0  0  0  0
    0.5593    0.7674    0.4054 C   0  0  1  0  0  0  0  0  0  0  0  0
   -3.1594   -0.3099   -0.4909 C   0  0  0  0  0  0  0  0  0  0  0  0
    1.9402    0.1947    0.0870 C   0  0  0  0  0  0  0  0  0  0  0  0
    2.2484   -1.1926    0.6168 C   0  0  0  0  0  0  0  0  0  0  0  0
   -0.5487   -1.0557    0.2156 H   0  0  0  0  0  0  0  0  0  0  0  0
   -2.0927    1.5395   -0.2715 H   0  0  0  0  0  0  0  0  0  0  0  0
    0.4709    0.8219    1.4955 H   0  0  0  0  0  0  0  0  0  0  0  0
   -4.1199    0.1286   -0.1960 H   0  0  0  0  0  0  0  0  0  0  0  0
   -3.1054   -0.2732   -1.5841 H   0  0  0  0  0  0  0  0  0  0  0  0
    0.3840   -0.6570   -1.7669 H   0  0  0  0  0  0  0  0  0  0  0  0
   -3.0882    0.9787    1.6836 H   0  0  0  0  0  0  0  0  0  0  0  0
    2.1817   -1.1790    1.7080 H   0  0  0  0  0  0  0  0  0  0  0  0
    1.5410   -1.9126    0.2000 H   0  0  0  0  0  0  0  0  0  0  0  0
    0.5066    2.0565   -1.0589 H   0  0  0  0  0  0  0  0  0  0  0  0
   -3.9710   -2.1773   -0.4347 H   0  0  0  0  0  0  0  0  0  0  0  0
   -3.2174   -1.7514    0.9490 H   0  0  0  0  0  0  0  0  0  0  0  0
    3.7077   -2.4675    0.6220 H   0  0  0  0  0  0  0  0  0  0  0  0
  1  7  1  0  0  0  0
  1 18  1  0  0  0  0
  2  8  1  0  0  0  0
  2 19  1  0  0  0  0
  3  9  1  0  0  0  0
  3 22  1  0  0  0  0
  4 11  2  0  0  0  0
  5 12  1  0  0  0  0
  5 25  1  0  0  0  0
  6 10  1  0  0  0  0
  6 23  1  0  0  0  0
  6 24  1  0  0  0  0
  7  8  1  0  0  0  0
  7  9  1  0  0  0  0
  7 13  1  0  0  0  0
  8 10  1  0  0  0  0
  8 14  1  0  0  0  0
  9 11  1  0  0  0  0
  9 15  1  0  0  0  0
 10 16  1  0  0  0  0
 10 17  1  0  0  0  0
 11 12  1  0  0  0  0
 12 20  1  0  0  0  0
 12 21  1  0  0  0  0
M  END
> <PUBCHEM_COMPOUND_CID>
88317536

> <PUBCHEM_CONFORMER_RMSD>
0.6

> <PUBCHEM_CONFORMER_DIVERSEORDER>
1
218
103
211
89
191
186
78
233
164
312
33
132
249
149
208
282
318
22
172
4
86
166
62
135
229
216
277
260
110
11
168
215
195
188
60
193
295
61
142
299
72
34
315
112
167
255
2
24
81
291
7
213
173
38
212
284
117
262
316
141
294
192
307
83
180
145
108
305
50
304
256
189
214
8
5
253
71
176
52
246
76
267
136
104
270
296
43
175
159
247
161
10
150
125
194
26
259
264
230
283
29
199
288
39
35
238
59
94
80
310
160
308
99
219
239
227
217
183
12
138
97
314
126
187
287
90
30
268
303
87
116
154
258
269
20
263
91
6
276
266
114
124
278
120
153
19
207
234
84
293
170
56
272
53
100
156
281
261
46
9
102
75
68
298
265
290
63
223
64
271
240
85
92
128
241
169
146
158
54
3
113
18
36
162
257
27
190
79
313
107
82
206
123
32
105
250
302
69
121
31
280
178
235
181
155
228
133
301
237
209
131
77
37
157
101
245
111
55
137
127
147
201
198
252
129
232
67
144
143
300
289
119
196
25
292
273
185
200
254
106
285
297
225
226
275
224
17
171
204
231
14
122
274
236
23
15
139
244
134
242
177
203
202
109
41
88
309
279
51
130
96
165
311
49
16
44
184
148
115
210
317
48
151
73
243
197
174
152
205
179
65
93
47
221
286
182
70
40
57
220
251
45
98
95
306
42
21
74
140
28
13
248
222
66
118
58
163

> <PUBCHEM_MMFF94_PARTIAL_CHARGES>
18
1 -0.68
10 0.27
11 0.45
12 0.34
18 0.4
19 0.4
2 -0.68
22 0.4
23 0.36
24 0.36
25 0.4
3 -0.68
4 -0.57
5 -0.68
6 -0.99
7 0.28
8 0.28
9 0.34

> <PUBCHEM_EFFECTIVE_ROTOR_COUNT>
5

> <PUBCHEM_PHARMACOPHORE_FEATURES>
11
1 1 acceptor
1 1 donor
1 2 acceptor
1 2 donor
1 3 acceptor
1 3 donor
1 4 acceptor
1 5 acceptor
1 5 donor
1 6 cation
1 6 donor

> <PUBCHEM_HEAVY_ATOM_COUNT>
12

> <PUBCHEM_ATOM_DEF_STEREO_COUNT>
3

> <PUBCHEM_ATOM_UDEF_STEREO_COUNT>
0

> <PUBCHEM_BOND_DEF_STEREO_COUNT>
0

> <PUBCHEM_BOND_UDEF_STEREO_COUNT>
0

> <PUBCHEM_ISOTOPIC_ATOM_COUNT>
0

> <PUBCHEM_COMPONENT_COUNT>
1

> <PUBCHEM_CACTVS_TAUTO_COUNT>
11

> <PUBCHEM_CONFORMER_ID>
05439E6000000001

> <PUBCHEM_MMFF94_ENERGY>
12.9866

> <PUBCHEM_FEATURE_SELFOVERLAP>
55.849

> <PUBCHEM_SHAPE_FINGERPRINT>
10857977 72 16343706568845245195
11769659 78 18340197587685268951
12897270 3 15430038729712049722
12932764 1 18409739460268947841
14390081 3 9511460043625933499
16945 1 17896052085969152956
177051 138 18201715176114060735
18186145 218 12613042673261453022
19422 9 18342745104550054674
20201158 50 17821727187396403858
20281407 28 18337950074327884602
20645464 45 14620784990372142726
20645477 70 18334568040853850023
20653091 64 18270965759736504152
20871999 31 14635166628497111611
23211744 41 13470692524941518973
23402539 116 18057592193337486797
29004967 10 18113622287332583256
305870 269 10447934961864030460
3248919 1 17846782875407302109
5084963 1 18200875175126714273

> <PUBCHEM_SHAPE_MULTIPOLES>
212.63
5.35
1.56
1.01
0.13
0.03
0.01
2.53
-0.2
0.45
-0.08
-0.36
-0.06
-0.49

> <PUBCHEM_SHAPE_SELFOVERLAP>
402.387

> <PUBCHEM_SHAPE_VOLUME>
129.4

> <PUBCHEM_COORDINATE_TYPE>
2
5
10