90658215
  -OEChem-05072106003D

 26 25  0     1  0  0  0  0  0999 V2000
    3.5769    0.5775    0.0439 P   0  0  0  0  0  0  0  0  0  0  0  0
   -1.9921    0.0835   -1.6678 O   0  0  0  0  0  0  0  0  0  0  0  0
   -2.2027   -2.0359    0.3003 O   0  0  0  0  0  0  0  0  0  0  0  0
   -3.5753    0.9546    1.5236 O   0  0  0  0  0  0  0  0  0  0  0  0
    2.3031   -0.4663   -0.1183 O   0  0  0  0  0  0  0  0  0  0  0  0
    0.3249   -2.2337   -0.4159 O   0  0  0  0  0  0  0  0  0  0  0  0
    4.7608   -0.2056   -0.5154 O   0  5  0  0  0  0  0  0  0  0  0  0
    3.6649    0.8472    1.5432 O   0  5  0  0  0  0  0  0  0  0  0  0
    3.1873    1.7931   -0.7921 O   0  0  0  0  0  0  0  0  0  0  0  0
   -2.0419    0.3345   -0.2621 C   0  0  2  0  0  0  0  0  0  0  0  0
   -1.4360   -0.8573    0.4963 C   0  0  2  0  0  0  0  0  0  0  0  0
   -3.4994    0.6286    0.1385 C   0  0  2  0  0  0  0  0  0  0  0  0
    0.0024   -1.1512    0.0748 C   0  0  0  0  0  0  0  0  0  0  0  0
   -4.0945    1.7839   -0.6603 C   0  0  0  0  0  0  0  0  0  0  0  0
    1.0218   -0.0528    0.3111 C   0  0  0  0  0  0  0  0  0  0  0  0
   -1.4459    1.2330   -0.0645 H   0  0  0  0  0  0  0  0  0  0  0  0
   -1.4234   -0.6598    1.5736 H   0  0  0  0  0  0  0  0  0  0  0  0
   -4.1189   -0.2591   -0.0360 H   0  0  0  0  0  0  0  0  0  0  0  0
   -3.5203    2.7034   -0.5013 H   0  0  0  0  0  0  0  0  0  0  0  0
   -5.1176    1.9924   -0.3284 H   0  0  0  0  0  0  0  0  0  0  0  0
   -4.1209    1.5671   -1.7321 H   0  0  0  0  0  0  0  0  0  0  0  0
    0.7353    0.8355   -0.2553 H   0  0  0  0  0  0  0  0  0  0  0  0
    1.0492    0.1729    1.3807 H   0  0  0  0  0  0  0  0  0  0  0  0
   -1.0576    0.0534   -1.9330 H   0  0  0  0  0  0  0  0  0  0  0  0
   -2.2906   -2.1754   -0.6582 H   0  0  0  0  0  0  0  0  0  0  0  0
   -4.5123    1.0940    1.7429 H   0  0  0  0  0  0  0  0  0  0  0  0
  1  5  1  0  0  0  0
  1  7  1  0  0  0  0
  1  8  1  0  0  0  0
  1  9  2  0  0  0  0
  2 10  1  0  0  0  0
  2 24  1  0  0  0  0
  3 11  1  0  0  0  0
  3 25  1  0  0  0  0
  4 12  1  0  0  0  0
  4 26  1  0  0  0  0
  5 15  1  0  0  0  0
  6 13  2  0  0  0  0
 10 11  1  0  0  0  0
 10 12  1  0  0  0  0
 10 16  1  0  0  0  0
 11 13  1  0  0  0  0
 11 17  1  0  0  0  0
 12 14  1  0  0  0  0
 12 18  1  0  0  0  0
 13 15  1  0  0  0  0
 14 19  1  0  0  0  0
 14 20  1  0  0  0  0
 14 21  1  0  0  0  0
 15 22  1  0  0  0  0
 15 23  1  0  0  0  0
M  CHG  2   7  -1   8  -1
M  END
> <PUBCHEM_COMPOUND_CID>
90658215

> <PUBCHEM_CONFORMER_RMSD>
0.8

> <PUBCHEM_CONFORMER_DIVERSEORDER>
1
183
128
164
146
179
196
70
101
171
53
176
67
38
114
193
11
125
24
73
10
189
188
12
81
122
220
225
224
166
61
172
168
95
153
154
16
139
97
144
35
145
60
15
42
167
163
52
22
41
199
210
47
132
115
207
119
62
8
3
152
30
105
93
213
99
48
203
187
160
169
226
150
56
140
68
212
26
191
92
21
5
209
77
90
87
4
192
156
6
142
2
75
40
83
25
98
74
29
158
86
127
180
43
126
131
138
31
110
7
36
120
28
159
181
175
186
195
130
17
44
204
222
66
155
37
55
82
197
100
19
65
218
170
109
51
23
194
201
205
79
46
72
198
178
161
69
157
223
190
124
206
123
54
106
85
18
185
217
215
102
32
121
219
13
58
57
9
63
136
103
112
221
78
162
80
182
59
34
165
71
50
20
113
133
200
149
104
117
76
141
108
27
229
84
228
135
147
208
137
129
216
173
96
134
107
227
14
143
49
45
148
39
88
89
118
211
214
94
64
184
202
111
151
33
116
174
177
91

> <PUBCHEM_MMFF94_PARTIAL_CHARGES>
17
1 1.37
10 0.28
11 0.34
12 0.28
13 0.45
15 0.34
2 -0.68
24 0.4
25 0.4
26 0.4
3 -0.68
4 -0.68
5 -0.55
6 -0.57
7 -1.03
8 -1.03
9 -1.03

> <PUBCHEM_EFFECTIVE_ROTOR_COUNT>
6

> <PUBCHEM_PHARMACOPHORE_FEATURES>
11
1 2 acceptor
1 2 donor
1 3 acceptor
1 3 donor
1 4 acceptor
1 4 donor
1 6 acceptor
1 7 acceptor
1 8 acceptor
1 9 acceptor
4 1 7 8 9 anion

> <PUBCHEM_HEAVY_ATOM_COUNT>
15

> <PUBCHEM_ATOM_DEF_STEREO_COUNT>
3

> <PUBCHEM_ATOM_UDEF_STEREO_COUNT>
0

> <PUBCHEM_BOND_DEF_STEREO_COUNT>
0

> <PUBCHEM_BOND_UDEF_STEREO_COUNT>
0

> <PUBCHEM_ISOTOPIC_ATOM_COUNT>
0

> <PUBCHEM_COMPONENT_COUNT>
1

> <PUBCHEM_CACTVS_TAUTO_COUNT>
9

> <PUBCHEM_CONFORMER_ID>
056755A700000001

> <PUBCHEM_MMFF94_ENERGY>
25.9017

> <PUBCHEM_FEATURE_SELFOVERLAP>
55.883

> <PUBCHEM_SHAPE_FINGERPRINT>
11127187 94 12391506490939556173
11132069 177 18335134297673359957
11543360 7 15410602714096918521
122479 349 18259987067582183633
12500047 106 18200590419195799070
12932764 1 17168416147389633526
14123255 52 18410006594518616781
14123260 362 18343025488483928457
14252887 29 11674882169580654592
14897335 6 18411132511579019723
15775835 57 18113899359793384808
1741750 31 18342454850438846579
17834072 14 9151169827163012899
17834072 32 18333732407690189469
17834072 8 18272095959527836070
18186145 218 18343587326188233646
20112054 60 18200589318971891648
20281407 28 10303812098607796175
20281475 54 10663817498793910295
20645477 56 18409731772129496147
20645477 70 16988850466919907574
20671657 53 12319450000201899578
20711983 171 18334579087699165278
20871998 22 11025794258719663650
21524375 3 18411697686230528859
23402539 116 18131344207459608260
23402655 69 17489588965772910952
23403322 49 11024109836912925877
23500284 214 18410860945112622499
23557571 272 18341624766362363494
23559900 14 18060421327081241368
25 1 18201159853848269507
27216 239 18040719177738177273
4028521 119 18131062697859772425
6430166 295 18408038498875007920
9882013 296 12612756826203083752

> <PUBCHEM_SHAPE_MULTIPOLES>
265.59
8.61
1.83
1.11
4.26
0.48
-0.14
-4.74
-0.33
-0.7
0.22
-0.24
-0.28
0.23

> <PUBCHEM_SHAPE_SELFOVERLAP>
498.988

> <PUBCHEM_SHAPE_VOLUME>
165.5

> <PUBCHEM_COORDINATE_TYPE>
2
5
10