91749230
  -OEChem-05072106003D

 84 84  0     1  0  0  0  0  0999 V2000
    0.1784   -3.0425    0.8701 Si  0  0  0  0  0  0  0  0  0  0  0  0
    1.7844    3.1476   -0.5954 Si  0  0  0  0  0  0  0  0  0  0  0  0
   -2.5981    1.2967    2.6805 Si  0  0  0  0  0  0  0  0  0  0  0  0
   -3.5871   -0.8983   -2.2444 Si  0  0  0  0  0  0  0  0  0  0  0  0
    4.4589   -1.0213    0.0130 Si  0  0  0  0  0  0  0  0  0  0  0  0
    0.0659    0.7990   -1.6529 O   0  0  0  0  0  0  0  0  0  0  0  0
    0.2674   -1.6913   -0.1153 O   0  0  0  0  0  0  0  0  0  0  0  0
    1.0902    1.8543    0.2062 O   0  0  0  0  0  0  0  0  0  0  0  0
   -1.2487    1.0693    1.7142 O   0  0  0  0  0  0  0  0  0  0  0  0
   -2.2993   -0.8668   -1.1739 O   0  0  0  0  0  0  0  0  0  0  0  0
    3.1002   -0.0385    0.1311 O   0  0  0  0  0  0  0  0  0  0  0  0
    0.2401   -0.3912    0.4725 C   0  0  1  0  0  0  0  0  0  0  0  0
    0.8906    0.6222   -0.4931 C   0  0  1  0  0  0  0  0  0  0  0  0
   -1.2159   -0.0251    0.8015 C   0  0  2  0  0  0  0  0  0  0  0  0
   -2.0134    0.3317   -0.4550 C   0  0  1  0  0  0  0  0  0  0  0  0
   -1.2456    1.2858   -1.3659 C   0  0  0  0  0  0  0  0  0  0  0  0
    2.2531    0.1282   -0.9887 C   0  0  0  0  0  0  0  0  0  0  0  0
   -1.5925   -3.3817    1.4057 C   0  0  0  0  0  0  0  0  0  0  0  0
    0.8428   -4.5704   -0.0034 C   0  0  0  0  0  0  0  0  0  0  0  0
    1.2119   -2.7631    2.4205 C   0  0  0  0  0  0  0  0  0  0  0  0
    1.1087    3.2331   -2.3522 C   0  0  0  0  0  0  0  0  0  0  0  0
    3.6537    2.9660   -0.7001 C   0  0  0  0  0  0  0  0  0  0  0  0
    1.3880    4.7758    0.2591 C   0  0  0  0  0  0  0  0  0  0  0  0
   -2.1920    2.3542    4.1821 C   0  0  0  0  0  0  0  0  0  0  0  0
   -3.2242   -0.3708    3.2953 C   0  0  0  0  0  0  0  0  0  0  0  0
   -3.9913    2.1238    1.7247 C   0  0  0  0  0  0  0  0  0  0  0  0
   -4.1514   -2.6605   -2.5831 C   0  0  0  0  0  0  0  0  0  0  0  0
   -3.1343   -0.0897   -3.8811 C   0  0  0  0  0  0  0  0  0  0  0  0
   -5.0422    0.0478   -1.5110 C   0  0  0  0  0  0  0  0  0  0  0  0
    5.3811   -1.0446    1.6559 C   0  0  0  0  0  0  0  0  0  0  0  0
    5.6401   -0.3887   -1.3073 C   0  0  0  0  0  0  0  0  0  0  0  0
    3.9805   -2.7906   -0.4097 C   0  0  0  0  0  0  0  0  0  0  0  0
    0.8227   -0.3623    1.4033 H   0  0  0  0  0  0  0  0  0  0  0  0
   -1.6961   -0.8826    1.2629 H   0  0  0  0  0  0  0  0  0  0  0  0
   -2.9445    0.8199   -0.1820 H   0  0  0  0  0  0  0  0  0  0  0  0
   -1.7336    1.4611   -2.3219 H   0  0  0  0  0  0  0  0  0  0  0  0
   -1.1867    2.2634   -0.8760 H   0  0  0  0  0  0  0  0  0  0  0  0
    2.7110    0.7546   -1.7563 H   0  0  0  0  0  0  0  0  0  0  0  0
    2.0982   -0.8269   -1.5106 H   0  0  0  0  0  0  0  0  0  0  0  0
   -2.2980   -3.1670    0.5987 H   0  0  0  0  0  0  0  0  0  0  0  0
   -1.7020   -4.4374    1.6740 H   0  0  0  0  0  0  0  0  0  0  0  0
   -1.8634   -2.7975    2.2871 H   0  0  0  0  0  0  0  0  0  0  0  0
    0.1526   -4.8730   -0.7972 H   0  0  0  0  0  0  0  0  0  0  0  0
    1.8158   -4.4022   -0.4610 H   0  0  0  0  0  0  0  0  0  0  0  0
    0.9333   -5.4030    0.7006 H   0  0  0  0  0  0  0  0  0  0  0  0
    0.7347   -2.0291    3.0768 H   0  0  0  0  0  0  0  0  0  0  0  0
    1.3112   -3.6978    2.9807 H   0  0  0  0  0  0  0  0  0  0  0  0
    2.2130   -2.4040    2.1762 H   0  0  0  0  0  0  0  0  0  0  0  0
    1.3591    2.3561   -2.9537 H   0  0  0  0  0  0  0  0  0  0  0  0
    1.5738    4.0895   -2.8539 H   0  0  0  0  0  0  0  0  0  0  0  0
    0.0322    3.4125   -2.3783 H   0  0  0  0  0  0  0  0  0  0  0  0
    4.1054    3.9575   -0.8115 H   0  0  0  0  0  0  0  0  0  0  0  0
    3.9835    2.3774   -1.5582 H   0  0  0  0  0  0  0  0  0  0  0  0
    4.0553    2.5272    0.2173 H   0  0  0  0  0  0  0  0  0  0  0  0
    1.8282    5.6158   -0.2861 H   0  0  0  0  0  0  0  0  0  0  0  0
    0.3057    4.9270    0.3105 H   0  0  0  0  0  0  0  0  0  0  0  0
    1.7847    4.7799    1.2785 H   0  0  0  0  0  0  0  0  0  0  0  0
   -1.4059    1.8843    4.7804 H   0  0  0  0  0  0  0  0  0  0  0  0
   -3.0755    2.4834    4.8140 H   0  0  0  0  0  0  0  0  0  0  0  0
   -1.8428    3.3431    3.8709 H   0  0  0  0  0  0  0  0  0  0  0  0
   -3.6375   -0.9663    2.4764 H   0  0  0  0  0  0  0  0  0  0  0  0
   -2.4164   -0.9322    3.7730 H   0  0  0  0  0  0  0  0  0  0  0  0
   -4.0182   -0.2237    4.0339 H   0  0  0  0  0  0  0  0  0  0  0  0
   -4.5779    1.3944    1.1619 H   0  0  0  0  0  0  0  0  0  0  0  0
   -4.6746    2.6239    2.4183 H   0  0  0  0  0  0  0  0  0  0  0  0
   -3.5985    2.8767    1.0353 H   0  0  0  0  0  0  0  0  0  0  0  0
   -5.0032   -2.6686   -3.2693 H   0  0  0  0  0  0  0  0  0  0  0  0
   -4.4526   -3.1513   -1.6529 H   0  0  0  0  0  0  0  0  0  0  0  0
   -3.3410   -3.2424   -3.0318 H   0  0  0  0  0  0  0  0  0  0  0  0
   -3.2212    0.9989   -3.8306 H   0  0  0  0  0  0  0  0  0  0  0  0
   -3.8109   -0.4346   -4.6693 H   0  0  0  0  0  0  0  0  0  0  0  0
   -2.1129   -0.3508   -4.1727 H   0  0  0  0  0  0  0  0  0  0  0  0
   -5.2774   -0.3252   -0.5101 H   0  0  0  0  0  0  0  0  0  0  0  0
   -5.9289   -0.0819   -2.1390 H   0  0  0  0  0  0  0  0  0  0  0  0
   -4.8303    1.1190   -1.4500 H   0  0  0  0  0  0  0  0  0  0  0  0
    6.2667   -1.6834    1.5908 H   0  0  0  0  0  0  0  0  0  0  0  0
    4.7359   -1.4278    2.4518 H   0  0  0  0  0  0  0  0  0  0  0  0
    5.7019   -0.0348    1.9281 H   0  0  0  0  0  0  0  0  0  0  0  0
    5.9711    0.6268   -1.0717 H   0  0  0  0  0  0  0  0  0  0  0  0
    6.5231   -1.0312   -1.3730 H   0  0  0  0  0  0  0  0  0  0  0  0
    5.1523   -0.3739   -2.2863 H   0  0  0  0  0  0  0  0  0  0  0  0
    3.5305   -3.2789    0.4553 H   0  0  0  0  0  0  0  0  0  0  0  0
    4.8728   -3.3631   -0.6816 H   0  0  0  0  0  0  0  0  0  0  0  0
    3.2914   -2.8222   -1.2566 H   0  0  0  0  0  0  0  0  0  0  0  0
  1  7  1  0  0  0  0
  1 18  1  0  0  0  0
  1 19  1  0  0  0  0
  1 20  1  0  0  0  0
  2  8  1  0  0  0  0
  2 21  1  0  0  0  0
  2 22  1  0  0  0  0
  2 23  1  0  0  0  0
  3  9  1  0  0  0  0
  3 24  1  0  0  0  0
  3 25  1  0  0  0  0
  3 26  1  0  0  0  0
  4 10  1  0  0  0  0
  4 27  1  0  0  0  0
  4 28  1  0  0  0  0
  4 29  1  0  0  0  0
  5 11  1  0  0  0  0
  5 30  1  0  0  0  0
  5 31  1  0  0  0  0
  5 32  1  0  0  0  0
  6 13  1  0  0  0  0
  6 16  1  0  0  0  0
  7 12  1  0  0  0  0
  8 13  1  0  0  0  0
  9 14  1  0  0  0  0
 10 15  1  0  0  0  0
 11 17  1  0  0  0  0
 12 13  1  0  0  0  0
 12 14  1  0  0  0  0
 12 33  1  0  0  0  0
 13 17  1  0  0  0  0
 14 15  1  0  0  0  0
 14 34  1  0  0  0  0
 15 16  1  0  0  0  0
 15 35  1  0  0  0  0
 16 36  1  0  0  0  0
 16 37  1  0  0  0  0
 17 38  1  0  0  0  0
 17 39  1  0  0  0  0
 18 40  1  0  0  0  0
 18 41  1  0  0  0  0
 18 42  1  0  0  0  0
 19 43  1  0  0  0  0
 19 44  1  0  0  0  0
 19 45  1  0  0  0  0
 20 46  1  0  0  0  0
 20 47  1  0  0  0  0
 20 48  1  0  0  0  0
 21 49  1  0  0  0  0
 21 50  1  0  0  0  0
 21 51  1  0  0  0  0
 22 52  1  0  0  0  0
 22 53  1  0  0  0  0
 22 54  1  0  0  0  0
 23 55  1  0  0  0  0
 23 56  1  0  0  0  0
 23 57  1  0  0  0  0
 24 58  1  0  0  0  0
 24 59  1  0  0  0  0
 24 60  1  0  0  0  0
 25 61  1  0  0  0  0
 25 62  1  0  0  0  0
 25 63  1  0  0  0  0
 26 64  1  0  0  0  0
 26 65  1  0  0  0  0
 26 66  1  0  0  0  0
 27 67  1  0  0  0  0
 27 68  1  0  0  0  0
 27 69  1  0  0  0  0
 28 70  1  0  0  0  0
 28 71  1  0  0  0  0
 28 72  1  0  0  0  0
 29 73  1  0  0  0  0
 29 74  1  0  0  0  0
 29 75  1  0  0  0  0
 30 76  1  0  0  0  0
 30 77  1  0  0  0  0
 30 78  1  0  0  0  0
 31 79  1  0  0  0  0
 31 80  1  0  0  0  0
 31 81  1  0  0  0  0
 32 82  1  0  0  0  0
 32 83  1  0  0  0  0
 32 84  1  0  0  0  0
M  END
> <PUBCHEM_COMPOUND_CID>
91749230

> <PUBCHEM_CONFORMER_RMSD>
1.2

> <PUBCHEM_CONFORMER_DIVERSEORDER>
3
92
87
111
109
110
107
27
97
91
106
79
108
88
81
100
86
75
24
80
76
89
67
32
73
57
50
82
64
94
34
104
17
74
99
18
48
90
72
78
63
39
98
55
25
95
60
69
43
59
33
96
38
46
61
29
36
22
30
13
12
21
15
16
14
102
62
9
83
66
84
6
7
101
52
2
77
71
28
70
8
35
68
11
85
54
5
20
37
49
10
51
105
56
1
58
45
47
4
19
53
41
44
42
26
65
40
31
23
103
93

> <PUBCHEM_MMFF94_PARTIAL_CHARGES>
32
1 0.54
10 -0.58
11 -0.58
12 0.28
13 0.56
14 0.28
15 0.28
16 0.28
17 0.28
18 -0.08
19 -0.08
2 0.54
20 -0.08
21 -0.08
22 -0.08
23 -0.08
24 -0.08
25 -0.08
26 -0.08
27 -0.08
28 -0.08
29 -0.08
3 0.54
30 -0.08
31 -0.08
32 -0.08
4 0.54
5 0.54
6 -0.56
7 -0.58
8 -0.58
9 -0.58

> <PUBCHEM_EFFECTIVE_ROTOR_COUNT>
12.2

> <PUBCHEM_PHARMACOPHORE_FEATURES>
2
1 6 acceptor
6 6 12 13 14 15 16 rings

> <PUBCHEM_HEAVY_ATOM_COUNT>
32

> <PUBCHEM_ATOM_DEF_STEREO_COUNT>
3

> <PUBCHEM_ATOM_UDEF_STEREO_COUNT>
1

> <PUBCHEM_BOND_DEF_STEREO_COUNT>
0

> <PUBCHEM_BOND_UDEF_STEREO_COUNT>
0

> <PUBCHEM_ISOTOPIC_ATOM_COUNT>
0

> <PUBCHEM_COMPONENT_COUNT>
1

> <PUBCHEM_CACTVS_TAUTO_COUNT>
1

> <PUBCHEM_CONFORMER_ID>
0577FB6E00000003

> <PUBCHEM_MMFF94_ENERGY>
77.0314

> <PUBCHEM_FEATURE_SELFOVERLAP>
10.148

> <PUBCHEM_SHAPE_FINGERPRINT>
11445158 3 17607563307267797660
11578080 2 17678741361192564700
11763715 3 17274543247264561410
12160290 23 16199613345527767473
12553582 1 18335432236166772158
13009979 54 17775286105245743757
131258 38 16751873021854396979
13140716 1 18335712667482351826
133893 2 18263088875916056436
13583140 156 18264792999064913073
13636023 20 17907815735231603989
13636023 51 16590876799633291665
13911987 19 18113909230129742342
13965767 371 16906689245253835729
14068700 675 18129643305541362142
14955137 171 18120685494358001648
15219462 58 17841163460430361600
15328829 1 18131072589575097865
15420108 30 17554901966133285233
15775530 1 17680426955261687838
19319366 153 18271810172736503203
20600515 1 17912324832232496466
20775438 99 17688558960504659278
2132832 1 17988917911682557804
22182313 1 17532368871054024469
23419403 2 16040559427798571441
23559900 14 18264759047290103684
23598288 3 17844832415105262451
3380486 145 18193837046526029348
3493558 16 17132110213237465520
460360 51 17896041112538519780
463206 1 18190162529915738758
469060 322 18265879281908210328
563151 248 17630908018122294331
57527358 35 16559029355762691538
6669772 16 17825926364226575134

> <PUBCHEM_SHAPE_MULTIPOLES>
714.39
8.98
5.29
3.81
5.3
0.45
1.29
-2.01
-2.38
2.63
0.7
-5.96
0.9
-3.43

> <PUBCHEM_SHAPE_SELFOVERLAP>
1308.385

> <PUBCHEM_SHAPE_VOLUME>
457.8

> <PUBCHEM_COORDINATE_TYPE>
2
5
10