92132332
  -OEChem-05072106003D

 45 45  0     1  0  0  0  0  0999 V2000
   -1.9835   -0.7073   -1.1706 O   0  0  0  0  0  0  0  0  0  0  0  0
   -0.5375    0.8100   -0.0626 O   0  0  0  0  0  0  0  0  0  0  0  0
   -4.7591    1.2639    1.1663 O   0  0  0  0  0  0  0  0  0  0  0  0
   -2.5771    2.7373   -0.0350 O   0  0  0  0  0  0  0  0  0  0  0  0
   -4.0146   -1.4329    1.8188 O   0  0  0  0  0  0  0  0  0  0  0  0
   -1.4226   -3.3718   -0.9769 O   0  0  0  0  0  0  0  0  0  0  0  0
    1.4525   -1.0813    0.5024 O   0  0  0  0  0  0  0  0  0  0  0  0
    1.1687    3.0366   -0.0856 O   0  0  0  0  0  0  0  0  0  0  0  0
    3.0790   -0.6336   -1.8268 O   0  0  0  0  0  0  0  0  0  0  0  0
    4.9478   -1.4063   -0.1403 O   0  0  0  0  0  0  0  0  0  0  0  0
    5.7569   -0.2675    2.1291 O   0  0  0  0  0  0  0  0  0  0  0  0
   -3.4845    0.6939    0.8597 C   0  0  2  0  0  0  0  0  0  0  0  0
   -2.9071    1.3938   -0.3692 C   0  0  2  0  0  0  0  0  0  0  0  0
   -3.6794   -0.7988    0.5867 C   0  0  1  0  0  0  0  0  0  0  0  0
   -2.4100   -1.4247   -0.0068 C   0  0  1  0  0  0  0  0  0  0  0  0
   -1.6764    0.6637   -0.9090 C   0  0  2  0  0  0  0  0  0  0  0  0
    0.6739    0.8023   -0.8170 C   0  0  2  0  0  0  0  0  0  0  0  0
   -2.6310   -2.8737   -0.4329 C   0  0  0  0  0  0  0  0  0  0  0  0
    1.8171    0.2121    0.0295 C   0  0  2  0  0  0  0  0  0  0  0  0
    0.9694    2.2391   -1.2486 C   0  0  0  0  0  0  0  0  0  0  0  0
    3.1914    0.1660   -0.6560 C   0  0  1  0  0  0  0  0  0  0  0  0
    4.3313   -0.3934    0.1936 C   0  0  0  0  0  0  0  0  0  0  0  0
    4.6946    0.3727    1.4513 C   0  0  0  0  0  0  0  0  0  0  0  0
   -2.8525    0.8605    1.7397 H   0  0  0  0  0  0  0  0  0  0  0  0
   -3.6740    1.4293   -1.1537 H   0  0  0  0  0  0  0  0  0  0  0  0
   -4.5270   -0.9409   -0.0947 H   0  0  0  0  0  0  0  0  0  0  0  0
   -1.4633    1.1208   -1.8832 H   0  0  0  0  0  0  0  0  0  0  0  0
   -1.5931   -1.4133    0.7269 H   0  0  0  0  0  0  0  0  0  0  0  0
    0.5484    0.1630   -1.7010 H   0  0  0  0  0  0  0  0  0  0  0  0
   -3.3990   -2.9382   -1.2109 H   0  0  0  0  0  0  0  0  0  0  0  0
   -2.9220   -3.4997    0.4160 H   0  0  0  0  0  0  0  0  0  0  0  0
    1.8996    0.8195    0.9388 H   0  0  0  0  0  0  0  0  0  0  0  0
   -5.3381    1.1446    0.3943 H   0  0  0  0  0  0  0  0  0  0  0  0
   -3.3826    3.1584    0.3108 H   0  0  0  0  0  0  0  0  0  0  0  0
    1.8568    2.3044   -1.8836 H   0  0  0  0  0  0  0  0  0  0  0  0
    0.1279    2.6727   -1.7970 H   0  0  0  0  0  0  0  0  0  0  0  0
   -3.2543   -1.3441    2.4185 H   0  0  0  0  0  0  0  0  0  0  0  0
    3.5092    1.1632   -0.9747 H   0  0  0  0  0  0  0  0  0  0  0  0
   -1.5860   -4.2925   -1.2438 H   0  0  0  0  0  0  0  0  0  0  0  0
    2.1281   -1.3716    1.1380 H   0  0  0  0  0  0  0  0  0  0  0  0
    1.3544    3.9415   -0.3893 H   0  0  0  0  0  0  0  0  0  0  0  0
    2.7466   -1.5075   -1.5586 H   0  0  0  0  0  0  0  0  0  0  0  0
    5.0056    1.3836    1.1744 H   0  0  0  0  0  0  0  0  0  0  0  0
    3.8322    0.4083    2.1206 H   0  0  0  0  0  0  0  0  0  0  0  0
    5.9629    0.2701    2.9128 H   0  0  0  0  0  0  0  0  0  0  0  0
  1 15  1  0  0  0  0
  1 16  1  0  0  0  0
  2 16  1  0  0  0  0
  2 17  1  0  0  0  0
  3 12  1  0  0  0  0
  3 33  1  0  0  0  0
  4 13  1  0  0  0  0
  4 34  1  0  0  0  0
  5 14  1  0  0  0  0
  5 37  1  0  0  0  0
  6 18  1  0  0  0  0
  6 39  1  0  0  0  0
  7 19  1  0  0  0  0
  7 40  1  0  0  0  0
  8 20  1  0  0  0  0
  8 41  1  0  0  0  0
  9 21  1  0  0  0  0
  9 42  1  0  0  0  0
 10 22  2  0  0  0  0
 11 23  1  0  0  0  0
 11 45  1  0  0  0  0
 12 13  1  0  0  0  0
 12 14  1  0  0  0  0
 12 24  1  0  0  0  0
 13 16  1  0  0  0  0
 13 25  1  0  0  0  0
 14 15  1  0  0  0  0
 14 26  1  0  0  0  0
 15 18  1  0  0  0  0
 15 28  1  0  0  0  0
 16 27  1  0  0  0  0
 17 19  1  0  0  0  0
 17 20  1  0  0  0  0
 17 29  1  0  0  0  0
 18 30  1  0  0  0  0
 18 31  1  0  0  0  0
 19 21  1  0  0  0  0
 19 32  1  0  0  0  0
 20 35  1  0  0  0  0
 20 36  1  0  0  0  0
 21 22  1  0  0  0  0
 21 38  1  0  0  0  0
 22 23  1  0  0  0  0
 23 43  1  0  0  0  0
 23 44  1  0  0  0  0
M  END
> <PUBCHEM_COMPOUND_CID>
92132332

> <PUBCHEM_CONFORMER_RMSD>
1

> <PUBCHEM_CONFORMER_DIVERSEORDER>
1
79
65
8
2
98
77
123
110
97
96
117
5
3
38
66
36
43
10
85
21
53
109
100
27
46
76
40
12
32
119
52
59
61
93
80
115
39
75
107
87
34
16
31
116
13
4
125
56
64
122
103
62
41
120
121
42
29
126
99
108
51
28
114
71
78
113
45
25
91
57
55
20
72
101
44
63
70
73
86
9
69
47
19
118
22
49
15
11
23
37
94
26
106
74
81
82
7
58
50
30
18
88
54
89
48
35
17
67
24
14
102
33
84
6
83
104
105
112
90
111
92
95
68
124
60

> <PUBCHEM_MMFF94_PARTIAL_CHARGES>
31
1 -0.56
10 -0.57
11 -0.68
12 0.28
13 0.28
14 0.28
15 0.28
16 0.56
17 0.28
18 0.28
19 0.28
2 -0.56
20 0.28
21 0.34
22 0.45
23 0.34
3 -0.68
33 0.4
34 0.4
37 0.4
39 0.4
4 -0.68
40 0.4
41 0.4
42 0.4
45 0.4
5 -0.68
6 -0.68
7 -0.68
8 -0.68
9 -0.68

> <PUBCHEM_EFFECTIVE_ROTOR_COUNT>
9.2

> <PUBCHEM_PHARMACOPHORE_FEATURES>
20
1 1 acceptor
1 10 acceptor
1 11 acceptor
1 11 donor
1 2 acceptor
1 3 acceptor
1 3 donor
1 4 acceptor
1 4 donor
1 5 acceptor
1 5 donor
1 6 acceptor
1 6 donor
1 7 acceptor
1 7 donor
1 8 acceptor
1 8 donor
1 9 acceptor
1 9 donor
6 1 12 13 14 15 16 rings

> <PUBCHEM_HEAVY_ATOM_COUNT>
23

> <PUBCHEM_ATOM_DEF_STEREO_COUNT>
7

> <PUBCHEM_ATOM_UDEF_STEREO_COUNT>
1

> <PUBCHEM_BOND_DEF_STEREO_COUNT>
0

> <PUBCHEM_BOND_UDEF_STEREO_COUNT>
0

> <PUBCHEM_ISOTOPIC_ATOM_COUNT>
0

> <PUBCHEM_COMPONENT_COUNT>
1

> <PUBCHEM_CACTVS_TAUTO_COUNT>
1

> <PUBCHEM_CONFORMER_ID>
057DD3EC00000001

> <PUBCHEM_MMFF94_ENERGY>
53.9369

> <PUBCHEM_FEATURE_SELFOVERLAP>
101.605

> <PUBCHEM_SHAPE_FINGERPRINT>
10062212 137 17894905222479646530
11045977 3 17846776308940298928
11370993 144 17775284924503932706
12553582 1 18337398230896270398
12633257 1 18340779220682793231
13004483 165 17840303647276181367
13140716 1 18265058105598985017
13583140 156 16845000325222818634
13675066 3 18201722834103806172
13994607 96 12391231677193345303
14081887 123 18343012277343679256
14178342 30 18412822508100723246
15183329 4 11887683909838182864
15209289 33 18040438818925345739
15375462 189 17967251979317089392
15537594 2 18040719130504255666
15788980 27 16660357065711978212
17349148 13 17022619754690505906
17780758 139 18408876335272586768
1813 80 17386011646057657860
19377110 9 18115306816983287444
200 152 15068625980449213277
20681677 274 18042413610892415401
21033648 29 17987787515039831217
22393880 68 10809331252949579184
23366157 5 17825110552305889524
23402539 116 15574712452778911836
23503953 91 18412828005669184160
23557571 272 18271812277011996212
23559900 14 18059590053087795244
23566358 27 17900277577884813757
2838139 119 14690631368380585443
312423 11 18115878575286645311
4028521 119 9511461104403571919
5104073 3 18262247715118813193
5924683 9 17988070209903265583
602551 16 18412822512780714906
7097593 13 18339365295752950805

> <PUBCHEM_SHAPE_MULTIPOLES>
408.77
10.27
2.88
1.47
9.19
0.3
-0.33
2.33
-5.53
-2.44
0.74
0.78
0.2
-0.42

> <PUBCHEM_SHAPE_SELFOVERLAP>
816.273

> <PUBCHEM_SHAPE_VOLUME>
237.4

> <PUBCHEM_COORDINATE_TYPE>
2
5
10