9561016
  -OEChem-05072106003D

 48 49  0     1  0  0  0  0  0999 V2000
    2.5598   -0.1696    1.3397 O   0  0  0  0  0  0  0  0  0  0  0  0
    4.7048   -1.9224    0.7770 O   0  0  0  0  0  0  0  0  0  0  0  0
    2.7659   -1.3492   -2.1139 O   0  0  0  0  0  0  0  0  0  0  0  0
    6.8092    0.2643    0.7522 O   0  0  0  0  0  0  0  0  0  0  0  0
   -0.0541   -1.8838   -0.4222 N   0  0  0  0  0  0  0  0  0  0  0  0
   -1.3530   -1.5372   -0.4937 N   0  0  0  0  0  0  0  0  0  0  0  0
   -0.2055    1.1333   -0.5528 N   0  0  0  0  0  0  0  0  0  0  0  0
   -0.4943    2.3175   -1.1252 N   0  0  0  0  0  0  0  0  0  0  0  0
    3.1276   -0.2890    0.0284 C   0  0  1  0  0  0  0  0  0  0  0  0
    4.6204   -0.6252    0.1726 C   0  0  1  0  0  0  0  0  0  0  0  0
    2.3068   -1.3132   -0.7665 C   0  0  1  0  0  0  0  0  0  0  0  0
    5.4180    0.3495    1.0383 C   0  0  0  0  0  0  0  0  0  0  0  0
    0.8202   -1.0057   -0.8032 C   0  0  0  0  0  0  0  0  0  0  0  0
    0.4422    0.3409   -1.3306 C   0  0  0  0  0  0  0  0  0  0  0  0
   -2.3531   -2.4396   -0.0973 C   0  0  0  0  0  0  0  0  0  0  0  0
   -1.1985    3.3037   -0.4175 C   0  0  0  0  0  0  0  0  0  0  0  0
   -3.6957   -2.0669   -0.1648 C   0  0  0  0  0  0  0  0  0  0  0  0
   -2.0041   -3.7087    0.3646 C   0  0  0  0  0  0  0  0  0  0  0  0
   -4.6891   -2.9631    0.2296 C   0  0  0  0  0  0  0  0  0  0  0  0
   -2.9975   -4.6050    0.7589 C   0  0  0  0  0  0  0  0  0  0  0  0
   -1.4868    4.5262   -1.0245 C   0  0  0  0  0  0  0  0  0  0  0  0
   -1.6100    3.0618    0.8932 C   0  0  0  0  0  0  0  0  0  0  0  0
   -4.3400   -4.2321    0.6914 C   0  0  0  0  0  0  0  0  0  0  0  0
   -2.1861    5.5067   -0.3207 C   0  0  0  0  0  0  0  0  0  0  0  0
   -2.3095    4.0421    1.5969 C   0  0  0  0  0  0  0  0  0  0  0  0
   -2.5976    5.2646    0.9898 C   0  0  0  0  0  0  0  0  0  0  0  0
    3.0577    0.6969   -0.4483 H   0  0  0  0  0  0  0  0  0  0  0  0
    5.0768   -0.7043   -0.8209 H   0  0  0  0  0  0  0  0  0  0  0  0
    2.4289   -2.3129   -0.3327 H   0  0  0  0  0  0  0  0  0  0  0  0
    5.1114    1.3797    0.8306 H   0  0  0  0  0  0  0  0  0  0  0  0
    5.2793    0.1410    2.1043 H   0  0  0  0  0  0  0  0  0  0  0  0
    1.6907    0.2564    1.2510 H   0  0  0  0  0  0  0  0  0  0  0  0
    5.6480   -2.1491    0.8464 H   0  0  0  0  0  0  0  0  0  0  0  0
    2.3272   -2.0984   -2.5523 H   0  0  0  0  0  0  0  0  0  0  0  0
    0.7583    0.5587   -2.3649 H   0  0  0  0  0  0  0  0  0  0  0  0
    7.2587    0.9081    1.3258 H   0  0  0  0  0  0  0  0  0  0  0  0
   -1.6458   -0.6257   -0.8246 H   0  0  0  0  0  0  0  0  0  0  0  0
   -0.2085    2.5216   -2.0766 H   0  0  0  0  0  0  0  0  0  0  0  0
   -3.9809   -1.0807   -0.5224 H   0  0  0  0  0  0  0  0  0  0  0  0
   -0.9693   -4.0336    0.4306 H   0  0  0  0  0  0  0  0  0  0  0  0
   -5.7344   -2.6729    0.1773 H   0  0  0  0  0  0  0  0  0  0  0  0
   -2.7264   -5.5933    1.1186 H   0  0  0  0  0  0  0  0  0  0  0  0
   -1.1719    4.7275   -2.0452 H   0  0  0  0  0  0  0  0  0  0  0  0
   -1.4033    2.1214    1.3971 H   0  0  0  0  0  0  0  0  0  0  0  0
   -5.1135   -4.9299    0.9985 H   0  0  0  0  0  0  0  0  0  0  0  0
   -2.4105    6.4586   -0.7931 H   0  0  0  0  0  0  0  0  0  0  0  0
   -2.6301    3.8541    2.6174 H   0  0  0  0  0  0  0  0  0  0  0  0
   -3.1422    6.0279    1.5378 H   0  0  0  0  0  0  0  0  0  0  0  0
  1  9  1  0  0  0  0
  1 32  1  0  0  0  0
  2 10  1  0  0  0  0
  2 33  1  0  0  0  0
  3 11  1  0  0  0  0
  3 34  1  0  0  0  0
  4 12  1  0  0  0  0
  4 36  1  0  0  0  0
  5  6  1  0  0  0  0
  5 13  2  0  0  0  0
  6 15  1  0  0  0  0
  6 37  1  0  0  0  0
  7  8  1  0  0  0  0
  7 14  2  0  0  0  0
  8 16  1  0  0  0  0
  8 38  1  0  0  0  0
  9 10  1  0  0  0  0
  9 11  1  0  0  0  0
  9 27  1  0  0  0  0
 10 12  1  0  0  0  0
 10 28  1  0  0  0  0
 11 13  1  0  0  0  0
 11 29  1  0  0  0  0
 12 30  1  0  0  0  0
 12 31  1  0  0  0  0
 13 14  1  0  0  0  0
 14 35  1  0  0  0  0
 15 17  2  0  0  0  0
 15 18  1  0  0  0  0
 16 21  2  0  0  0  0
 16 22  1  0  0  0  0
 17 19  1  0  0  0  0
 17 39  1  0  0  0  0
 18 20  2  0  0  0  0
 18 40  1  0  0  0  0
 19 23  2  0  0  0  0
 19 41  1  0  0  0  0
 20 23  1  0  0  0  0
 20 42  1  0  0  0  0
 21 24  1  0  0  0  0
 21 43  1  0  0  0  0
 22 25  2  0  0  0  0
 22 44  1  0  0  0  0
 23 45  1  0  0  0  0
 24 26  2  0  0  0  0
 24 46  1  0  0  0  0
 25 26  1  0  0  0  0
 25 47  1  0  0  0  0
 26 48  1  0  0  0  0
M  END
> <PUBCHEM_COMPOUND_CID>
9561016

> <PUBCHEM_CONFORMER_RMSD>
1

> <PUBCHEM_CONFORMER_DIVERSEORDER>
14
54
140
91
40
135
76
36
87
163
96
45
22
136
173
11
169
68
119
120
44
133
86
130
99
111
128
142
41
152
147
79
15
64
18
80
175
165
93
10
78
110
118
127
19
75
39
107
55
176
92
155
159
143
170
48
148
47
90
97
149
166
23
7
37
115
100
46
121
25
70
161
102
26
62
138
17
85
50
167
53
81
123
83
132
71
35
134
145
28
103
6
32
16
4
144
156
43
34
94
49
108
171
105
38
104
2
122
30
154
57
168
131
88
9
67
151
27
60
8
114
74
73
106
29
101
177
56
160
116
117
1
172
82
95
124
13
150
69
77
125
129
84
141
113
3
21
72
20
65
174
51
24
12
153
109
61
112
89
33
63
5
42
164
59
146
98
157
158
126
31
52
58
66
139
162
137

> <PUBCHEM_MMFF94_PARTIAL_CHARGES>
43
1 -0.68
10 0.28
11 0.34
12 0.28
13 0.39
14 0.39
15 0.1
16 0.1
17 -0.15
18 -0.15
19 -0.15
2 -0.68
20 -0.15
21 -0.15
22 -0.15
23 -0.15
24 -0.15
25 -0.15
26 -0.15
3 -0.68
32 0.4
33 0.4
34 0.4
35 0.06
36 0.4
37 0.4
38 0.4
39 0.15
4 -0.68
40 0.15
41 0.15
42 0.15
43 0.15
44 0.15
45 0.15
46 0.15
47 0.15
48 0.15
5 -0.49
6 -0.46
7 -0.49
8 -0.46
9 0.28

> <PUBCHEM_EFFECTIVE_ROTOR_COUNT>
9

> <PUBCHEM_PHARMACOPHORE_FEATURES>
14
1 1 acceptor
1 1 donor
1 2 acceptor
1 2 donor
1 3 acceptor
1 3 donor
1 4 acceptor
1 4 donor
1 5 acceptor
1 6 donor
1 7 acceptor
1 8 donor
6 15 17 18 19 20 23 rings
6 16 21 22 24 25 26 rings

> <PUBCHEM_HEAVY_ATOM_COUNT>
26

> <PUBCHEM_ATOM_DEF_STEREO_COUNT>
0

> <PUBCHEM_ATOM_UDEF_STEREO_COUNT>
3

> <PUBCHEM_BOND_DEF_STEREO_COUNT>
2

> <PUBCHEM_BOND_UDEF_STEREO_COUNT>
0

> <PUBCHEM_ISOTOPIC_ATOM_COUNT>
0

> <PUBCHEM_COMPONENT_COUNT>
1

> <PUBCHEM_CACTVS_TAUTO_COUNT>
1

> <PUBCHEM_CONFORMER_ID>
0091E3B80000000E

> <PUBCHEM_MMFF94_ENERGY>
79.6107

> <PUBCHEM_FEATURE_SELFOVERLAP>
71.061

> <PUBCHEM_SHAPE_FINGERPRINT>
10074138 170 18193253239999987256
10554248 39 9579360290555259243
11456790 92 18262246646616325579
12788726 201 18262251005015931382
13140716 1 18338518641950706127
13955234 65 17400087860162889363
140371 6 18410014321043197359
14150022 121 18411131481435858544
14955137 171 17690845979086392412
15142526 21 17839456687803804144
15338160 23 18411136927348959360
15775530 1 18056768624193674782
15878777 1 13916766668478060014
15927050 60 17762899870583800671
17980427 26 17259043113783314756
20600515 1 18340214106113762679
21120745 212 18265349446037077308
21304303 172 18412831313026091159
21796203 349 17685807969347739426
23558518 356 18196646289875693439
23559900 14 17831573546373962435
23845131 108 17977944583968809393
3380486 145 17840839057323826726
3418910 222 18189615116077708948
345986 75 17823955974707077058
4058900 60 17550393934400553392
5104073 3 17686919610754762019
57124632 79 17186719966781614581
6442390 28 17978521827483636693
653340 110 18339083661962592251
6679774 75 16960154080428777563
67856867 119 17475235082059763271
77188 2 18193274328199687356
79837 15 18194680363043011657
9658208 31 17981061725403409598
9777508 108 18195532493260517190
9896288 288 18337943512109116634

> <PUBCHEM_SHAPE_MULTIPOLES>
491.67
9.94
9.1
1.34
11.17
17.1
-0.11
-15.19
4.13
-11.45
1.73
0.61
0.51
0.06

> <PUBCHEM_SHAPE_SELFOVERLAP>
1022.185

> <PUBCHEM_SHAPE_VOLUME>
277.5

> <PUBCHEM_COORDINATE_TYPE>
2
5
10