9577099
  -OEChem-05072106003D

 41 41  0     1  0  0  0  0  0999 V2000
    4.2160   -0.9965   -0.8613 O   0  0  0  0  0  0  0  0  0  0  0  0
    3.2609   -1.2204    1.7978 O   0  0  0  0  0  0  0  0  0  0  0  0
    3.1469    2.1481    0.6691 O   0  0  0  0  0  0  0  0  0  0  0  0
    5.6272    2.9210   -0.2955 O   0  0  0  0  0  0  0  0  0  0  0  0
    1.6271   -4.2611   -0.4213 O   0  0  0  0  0  0  0  0  0  0  0  0
   -1.6638    3.2217    0.1163 O   0  5  0  0  0  0  0  0  0  0  0  0
    0.1198    1.9557   -0.0709 O   0  0  0  0  0  0  0  0  0  0  0  0
   -6.3060   -0.8816   -0.0017 O   0  5  0  0  0  0  0  0  0  0  0  0
   -6.0519    1.2927    0.1631 O   0  0  0  0  0  0  0  0  0  0  0  0
    0.5180   -1.7586   -0.3340 N   0  0  0  0  0  0  0  0  0  0  0  0
   -0.0005   -0.5204   -0.2680 N   0  0  0  0  0  0  0  0  0  0  0  0
   -1.1236    2.0970   -0.0016 N   0  3  0  0  0  0  0  0  0  0  0  0
   -5.5758    0.1377    0.0466 N   0  3  0  0  0  0  0  0  0  0  0  0
    3.2879   -0.0500   -0.3281 C   0  0  1  0  0  0  0  0  0  0  0  0
    2.4343   -0.7416    0.7471 C   0  0  1  0  0  0  0  0  0  0  0  0
    4.0721    1.1622    0.2060 C   0  0  1  0  0  0  0  0  0  0  0  0
    1.6995   -1.9549    0.1718 C   0  0  0  0  0  0  0  0  0  0  0  0
    4.9623    1.7961   -0.8619 C   0  0  0  0  0  0  0  0  0  0  0  0
    2.4396   -3.2795    0.1883 C   0  0  0  0  0  0  0  0  0  0  0  0
   -1.3907   -0.3356   -0.1883 C   0  0  0  0  0  0  0  0  0  0  0  0
   -1.9506    0.9403   -0.0584 C   0  0  0  0  0  0  0  0  0  0  0  0
   -2.2317   -1.4524   -0.2395 C   0  0  0  0  0  0  0  0  0  0  0  0
   -3.3344    1.0970    0.0191 C   0  0  0  0  0  0  0  0  0  0  0  0
   -4.1669   -0.0210   -0.0327 C   0  0  0  0  0  0  0  0  0  0  0  0
   -3.6156   -1.2958   -0.1620 C   0  0  0  0  0  0  0  0  0  0  0  0
    2.6347    0.2658   -1.1504 H   0  0  0  0  0  0  0  0  0  0  0  0
    1.7495   -0.0417    1.2305 H   0  0  0  0  0  0  0  0  0  0  0  0
    4.6987    0.8795    1.0593 H   0  0  0  0  0  0  0  0  0  0  0  0
    5.7293    1.1044   -1.2197 H   0  0  0  0  0  0  0  0  0  0  0  0
    4.3767    2.1513   -1.7160 H   0  0  0  0  0  0  0  0  0  0  0  0
    2.6511   -3.5882    1.2154 H   0  0  0  0  0  0  0  0  0  0  0  0
    3.3723   -3.2145   -0.3720 H   0  0  0  0  0  0  0  0  0  0  0  0
    4.5137   -0.6656   -1.7254 H   0  0  0  0  0  0  0  0  0  0  0  0
    4.0550   -1.6223    1.4058 H   0  0  0  0  0  0  0  0  0  0  0  0
    2.5871    2.4078   -0.0827 H   0  0  0  0  0  0  0  0  0  0  0  0
    0.5902    0.2888   -0.3889 H   0  0  0  0  0  0  0  0  0  0  0  0
    4.9427    3.5336    0.0237 H   0  0  0  0  0  0  0  0  0  0  0  0
   -1.8421   -2.4620   -0.3412 H   0  0  0  0  0  0  0  0  0  0  0  0
   -3.7686    2.0890    0.1202 H   0  0  0  0  0  0  0  0  0  0  0  0
   -4.2335   -2.1890   -0.2058 H   0  0  0  0  0  0  0  0  0  0  0  0
    0.8442   -4.3858    0.1420 H   0  0  0  0  0  0  0  0  0  0  0  0
  1 14  1  0  0  0  0
  1 33  1  0  0  0  0
  2 15  1  0  0  0  0
  2 34  1  0  0  0  0
  3 16  1  0  0  0  0
  3 35  1  0  0  0  0
  4 18  1  0  0  0  0
  4 37  1  0  0  0  0
  5 19  1  0  0  0  0
  5 41  1  0  0  0  0
  6 12  1  0  0  0  0
  7 12  2  0  0  0  0
  8 13  1  0  0  0  0
  9 13  2  0  0  0  0
 10 11  1  0  0  0  0
 10 17  2  0  0  0  0
 11 20  1  0  0  0  0
 11 36  1  0  0  0  0
 12 21  1  0  0  0  0
 13 24  1  0  0  0  0
 14 15  1  0  0  0  0
 14 16  1  0  0  0  0
 14 26  1  0  0  0  0
 15 17  1  0  0  0  0
 15 27  1  0  0  0  0
 16 18  1  0  0  0  0
 16 28  1  0  0  0  0
 17 19  1  0  0  0  0
 18 29  1  0  0  0  0
 18 30  1  0  0  0  0
 19 31  1  0  0  0  0
 19 32  1  0  0  0  0
 20 21  2  0  0  0  0
 20 22  1  0  0  0  0
 21 23  1  0  0  0  0
 22 25  2  0  0  0  0
 22 38  1  0  0  0  0
 23 24  2  0  0  0  0
 23 39  1  0  0  0  0
 24 25  1  0  0  0  0
 25 40  1  0  0  0  0
M  CHG  4   6  -1   8  -1  12   1  13   1
M  END
> <PUBCHEM_COMPOUND_CID>
9577099

> <PUBCHEM_CONFORMER_RMSD>
1

> <PUBCHEM_CONFORMER_DIVERSEORDER>
1
9
10
14
4
7
28
37
6
34
38
33
23
32
5
25
29
13
19
26
17
31
21
18
30
3
22
24
11
35
36
2
12
8
16
20
15
27

> <PUBCHEM_MMFF94_PARTIAL_CHARGES>
34
1 -0.68
10 -0.49
11 -0.46
12 0.91
13 0.91
14 0.28
15 0.34
16 0.28
17 0.33
18 0.28
19 0.34
2 -0.68
20 0.1
21 0.13
22 -0.15
23 -0.15
24 0.13
25 -0.15
3 -0.68
33 0.4
34 0.4
35 0.4
36 0.4
37 0.4
38 0.15
39 0.15
4 -0.68
40 0.15
41 0.4
5 -0.68
6 -0.52
7 -0.52
8 -0.52
9 -0.52

> <PUBCHEM_EFFECTIVE_ROTOR_COUNT>
9

> <PUBCHEM_PHARMACOPHORE_FEATURES>
19
1 1 acceptor
1 1 donor
1 10 acceptor
1 11 donor
1 2 acceptor
1 2 donor
1 3 acceptor
1 3 donor
1 4 acceptor
1 4 donor
1 5 acceptor
1 5 donor
1 6 acceptor
1 6 anion
1 7 acceptor
1 8 acceptor
1 8 anion
1 9 acceptor
6 20 21 22 23 24 25 rings

> <PUBCHEM_HEAVY_ATOM_COUNT>
25

> <PUBCHEM_ATOM_DEF_STEREO_COUNT>
3

> <PUBCHEM_ATOM_UDEF_STEREO_COUNT>
0

> <PUBCHEM_BOND_DEF_STEREO_COUNT>
1

> <PUBCHEM_BOND_UDEF_STEREO_COUNT>
0

> <PUBCHEM_ISOTOPIC_ATOM_COUNT>
0

> <PUBCHEM_COMPONENT_COUNT>
1

> <PUBCHEM_CACTVS_TAUTO_COUNT>
1

> <PUBCHEM_CONFORMER_ID>
0092228B00000001

> <PUBCHEM_MMFF94_ENERGY>
88.1235

> <PUBCHEM_FEATURE_SELFOVERLAP>
96.621

> <PUBCHEM_SHAPE_FINGERPRINT>
10090160 65 18260823830069340918
10366900 7 18261122828649853930
10498660 4 18410012156606825236
10906281 52 18336278902684730337
11578080 2 17459738233963584869
12730499 353 18409740568455179314
12788726 201 17489315144222473577
12838862 33 18266722744655579900
13140716 1 18269261529571778179
13899415 154 17846222189329180481
13955234 65 18335423409482335562
14341114 328 18187920711658088850
14528608 73 18341611546663743495
14617045 38 18411985796973981345
14787075 74 18333447660269821315
14790565 3 18266745868553604349
15196674 1 18411138060391598277
15927050 60 17331123204775516469
17492 89 18193835938461656451
19591789 44 18050848015774985146
20642791 178 17971201566929121989
21267235 1 18339086994846807319
21652331 79 18410292514480530172
21792934 111 18266728096653751353
221357 26 18272660026183440228
23558518 356 18049443634826515867
23559900 14 18123464977843231079
34934 24 18411698807517602215
350125 39 18339079268464366414
4340502 62 16732980950797513744
4409770 3 16241237217818139454
46194498 28 17988093192663306382
474 4 17895199951836300076
5104073 3 18261960644215973115
5486654 2 18338803445770164564
7097593 13 17538270744577292930
7808743 9 18121777494478542240
9709674 26 18265897951983989251

> <PUBCHEM_SHAPE_MULTIPOLES>
441.74
12.32
3.71
0.8
8.01
1.37
0.16
-5.14
-0.52
-3.92
-0.17
-0.77
0.13
-0.59

> <PUBCHEM_SHAPE_SELFOVERLAP>
912.292

> <PUBCHEM_SHAPE_VOLUME>
251.5

> <PUBCHEM_COORDINATE_TYPE>
2
5
10