9839580
  -OEChem-05072106003D

 45 44  0     1  0  0  0  0  0999 V2000
    4.2623    0.8235    1.7367 O   0  0  0  0  0  0  0  0  0  0  0  0
    4.5285    1.2442   -1.1305 O   0  0  0  0  0  0  0  0  0  0  0  0
    6.3846   -0.0444    0.0788 O   0  0  0  0  0  0  0  0  0  0  0  0
    2.2291    2.4238   -0.5664 O   0  0  0  0  0  0  0  0  0  0  0  0
    6.6484   -2.8125   -0.3802 O   0  0  0  0  0  0  0  0  0  0  0  0
   -6.6067   -1.3859   -1.5770 O   0  0  0  0  0  0  0  0  0  0  0  0
   -6.5937   -2.1069    0.5715 O   0  0  0  0  0  0  0  0  0  0  0  0
   -0.1513    1.0743   -0.3050 N   0  0  0  0  0  0  0  0  0  0  0  0
   -6.5006    0.3276    1.6306 N   0  0  0  0  0  0  0  0  0  0  0  0
    4.0769   -0.2135    0.7640 C   0  0  1  0  0  0  0  0  0  0  0  0
    3.5479    0.4070   -0.5364 C   0  0  1  0  0  0  0  0  0  0  0  0
   -2.6015    1.0440   -0.3499 C   0  0  0  0  0  0  0  0  0  0  0  0
   -3.8546    0.3139    0.1401 C   0  0  0  0  0  0  0  0  0  0  0  0
   -1.3331    0.3628    0.1637 C   0  0  0  0  0  0  0  0  0  0  0  0
    5.4174   -0.9573    0.6115 C   0  0  1  0  0  0  0  0  0  0  0  0
   -5.1642    0.9365   -0.3631 C   0  0  0  0  0  0  0  0  0  0  0  0
    1.0652    0.4511    0.1966 C   0  0  0  0  0  0  0  0  0  0  0  0
    2.2683    1.2169   -0.3238 C   0  0  0  0  0  0  0  0  0  0  0  0
   -6.4381    0.2682    0.1695 C   0  0  1  0  0  0  0  0  0  0  0  0
    5.3736   -2.1876   -0.2941 C   0  0  0  0  0  0  0  0  0  0  0  0
   -6.5584   -1.1860   -0.2368 C   0  0  0  0  0  0  0  0  0  0  0  0
    3.3287   -0.9009    1.1754 H   0  0  0  0  0  0  0  0  0  0  0  0
    3.3168   -0.3817   -1.2610 H   0  0  0  0  0  0  0  0  0  0  0  0
   -2.5963    1.0629   -1.4469 H   0  0  0  0  0  0  0  0  0  0  0  0
   -2.6327    2.0862   -0.0083 H   0  0  0  0  0  0  0  0  0  0  0  0
   -3.8055   -0.7334   -0.1822 H   0  0  0  0  0  0  0  0  0  0  0  0
   -3.8459    0.3080    1.2366 H   0  0  0  0  0  0  0  0  0  0  0  0
    5.7977   -1.2509    1.5972 H   0  0  0  0  0  0  0  0  0  0  0  0
   -1.3518    0.3409    1.2602 H   0  0  0  0  0  0  0  0  0  0  0  0
   -1.3113   -0.6741   -0.1930 H   0  0  0  0  0  0  0  0  0  0  0  0
   -5.1793    1.9997   -0.0895 H   0  0  0  0  0  0  0  0  0  0  0  0
   -5.1686    0.9012   -1.4599 H   0  0  0  0  0  0  0  0  0  0  0  0
    1.1050    0.4577    1.2910 H   0  0  0  0  0  0  0  0  0  0  0  0
    1.1290   -0.5811   -0.1643 H   0  0  0  0  0  0  0  0  0  0  0  0
   -0.1927    2.0437    0.0097 H   0  0  0  0  0  0  0  0  0  0  0  0
   -7.3156    0.7910   -0.2289 H   0  0  0  0  0  0  0  0  0  0  0  0
    4.6495   -2.9216    0.0728 H   0  0  0  0  0  0  0  0  0  0  0  0
    5.0981   -1.9104   -1.3159 H   0  0  0  0  0  0  0  0  0  0  0  0
    4.5317    0.3994    2.5693 H   0  0  0  0  0  0  0  0  0  0  0  0
    4.1975    1.5079   -2.0061 H   0  0  0  0  0  0  0  0  0  0  0  0
    6.4122    0.7272    0.6701 H   0  0  0  0  0  0  0  0  0  0  0  0
   -6.4372    1.2982    1.9355 H   0  0  0  0  0  0  0  0  0  0  0  0
   -7.4080   -0.0112    1.9487 H   0  0  0  0  0  0  0  0  0  0  0  0
    6.9104   -3.0649    0.5216 H   0  0  0  0  0  0  0  0  0  0  0  0
   -6.6752   -2.3379   -1.8030 H   0  0  0  0  0  0  0  0  0  0  0  0
  1 10  1  0  0  0  0
  1 39  1  0  0  0  0
  2 11  1  0  0  0  0
  2 40  1  0  0  0  0
  3 15  1  0  0  0  0
  3 41  1  0  0  0  0
  4 18  2  0  0  0  0
  5 20  1  0  0  0  0
  5 44  1  0  0  0  0
  6 21  1  0  0  0  0
  6 45  1  0  0  0  0
  7 21  2  0  0  0  0
  8 14  1  0  0  0  0
  8 17  1  0  0  0  0
  8 35  1  0  0  0  0
  9 19  1  0  0  0  0
  9 42  1  0  0  0  0
  9 43  1  0  0  0  0
 10 11  1  0  0  0  0
 10 15  1  0  0  0  0
 10 22  1  0  0  0  0
 11 18  1  0  0  0  0
 11 23  1  0  0  0  0
 12 13  1  0  0  0  0
 12 14  1  0  0  0  0
 12 24  1  0  0  0  0
 12 25  1  0  0  0  0
 13 16  1  0  0  0  0
 13 26  1  0  0  0  0
 13 27  1  0  0  0  0
 14 29  1  0  0  0  0
 14 30  1  0  0  0  0
 15 20  1  0  0  0  0
 15 28  1  0  0  0  0
 16 19  1  0  0  0  0
 16 31  1  0  0  0  0
 16 32  1  0  0  0  0
 17 18  1  0  0  0  0
 17 33  1  0  0  0  0
 17 34  1  0  0  0  0
 19 21  1  0  0  0  0
 19 36  1  0  0  0  0
 20 37  1  0  0  0  0
 20 38  1  0  0  0  0
M  END
> <PUBCHEM_COMPOUND_CID>
9839580

> <PUBCHEM_CONFORMER_RMSD>
1.2

> <PUBCHEM_CONFORMER_DIVERSEORDER>
1
312
132
230
30
31
339
343
108
280
168
114
215
153
277
83
50
301
243
117
57
300
319
189
325
126
61
199
222
316
296
129
107
54
141
17
278
252
161
336
98
251
133
62
264
67
286
282
233
92
205
184
149
261
327
169
68
46
89
201
256
77
15
90
291
188
4
56
332
317
47
359
223
16
190
43
211
265
72
357
48
115
130
246
323
104
103
14
173
304
241
63
253
59
206
257
361
260
120
176
179
86
221
80
41
307
5
116
195
203
364
350
358
97
348
279
289
75
109
183
345
310
274
193
330
247
162
25
245
309
154
302
73
96
297
82
216
3
6
337
53
352
10
178
210
318
207
258
51
93
305
9
137
349
100
324
35
202
38
328
105
147
148
70
259
329
119
354
134
175
283
254
99
236
177
88
308
356
27
338
238
78
234
326
123
226
79
321
66
12
159
228
71
341
102
22
270
196
290
231
287
85
170
224
182
139
21
7
138
334
11
299
303
64
322
227
131
262
292
306
122
136
157
94
267
106
248
163
335
65
42
118
288
208
272
333
166
69
347
144
58
342
55
204
311
240
340
275
171
209
158
197
91
23
220
95
125
8
33
363
36
111
81
52
87
353
217
285
28
362
60
276
186
273
194
156
145
344
165
143
113
180
225
164
198
360
160
2
244
142
181
37
331
237
268
140
185
219
128
151
232
281
229
18
314
150
26
84
284
187
315
239
212
44
19
294
32
255
45
124
34
74
266
313
242
263
40
191
24
218
112
269
192
167
13
214
298
49
355
155
110
174
76
135
39
295
249
121
127
250
200
235
101
29
271
146
293
152
172
346
351
20
320
213

> <PUBCHEM_MMFF94_PARTIAL_CHARGES>
26
1 -0.68
10 0.28
11 0.34
14 0.27
15 0.28
17 0.33
18 0.45
19 0.33
2 -0.68
20 0.28
21 0.66
3 -0.68
35 0.36
39 0.4
4 -0.57
40 0.4
41 0.4
42 0.36
43 0.36
44 0.4
45 0.5
5 -0.68
6 -0.65
7 -0.57
8 -0.9
9 -0.99

> <PUBCHEM_EFFECTIVE_ROTOR_COUNT>
12

> <PUBCHEM_PHARMACOPHORE_FEATURES>
16
1 1 acceptor
1 1 donor
1 2 acceptor
1 2 donor
1 3 acceptor
1 3 donor
1 4 acceptor
1 5 acceptor
1 5 donor
1 6 acceptor
1 7 acceptor
1 8 cation
1 8 donor
1 9 cation
1 9 donor
3 6 7 21 anion

> <PUBCHEM_HEAVY_ATOM_COUNT>
21

> <PUBCHEM_ATOM_DEF_STEREO_COUNT>
4

> <PUBCHEM_ATOM_UDEF_STEREO_COUNT>
0

> <PUBCHEM_BOND_DEF_STEREO_COUNT>
0

> <PUBCHEM_BOND_UDEF_STEREO_COUNT>
0

> <PUBCHEM_ISOTOPIC_ATOM_COUNT>
0

> <PUBCHEM_COMPONENT_COUNT>
1

> <PUBCHEM_CACTVS_TAUTO_COUNT>
10

> <PUBCHEM_CONFORMER_ID>
009623DC00000001

> <PUBCHEM_MMFF94_ENERGY>
21.9343

> <PUBCHEM_FEATURE_SELFOVERLAP>
81.316

> <PUBCHEM_SHAPE_FINGERPRINT>
10 15 15769771381670833601
10066227 112 8358260341456019471
117890 112 10952053359845913661
12166972 35 18342739619761416784
12596602 18 17847058900423975155
12616971 3 16271915021850687064
13167372 99 10447658984482505431
13533116 47 18413107269054424176
13668630 136 18187082849622802415
13685833 64 18411136901357050842
13782708 43 18259981578830276733
13862211 1 18411417332767608389
14123256 34 18186806863687921897
14211702 104 18342465824433975471
14251764 18 18342458174933340252
15048467 5 9871750195890970661
15183329 4 17603862312938137083
15348495 7 16414908764338148979
15716309 27 18341895212738393641
16079462 125 12535344563361870393
17093844 174 16702021968589547065
1768 124 18131067113281526886
18927931 339 17530965779292043233
20281389 69 11312063145309577619
20621476 38 18411699898544855239
21130935 74 18272369780461719283
21150785 3 11819283269577109345
23081809 10 18342462577739308557
23522609 53 18123221041319180381
23559900 14 17240769540062825209
29717793 49 18040436585837776756
300161 21 11455884746142486461
3004659 81 17821730524775747048
328310 630 8862940606890675943
3472631 163 8069732006321911880
4340502 62 15626507193919814084
465052 167 18413110554593246172
5104073 3 15768908286507459134
543368 44 9295286141279819071
59682541 52 15502365708357054552
59755656 215 17530962462649220723

> <PUBCHEM_SHAPE_MULTIPOLES>
381.12
22.95
2.1
1.08
16.78
1.05
0.19
13.3
0.71
-2
-0.45
0.39
-0.02
-0.26

> <PUBCHEM_SHAPE_SELFOVERLAP>
731.232

> <PUBCHEM_SHAPE_VOLUME>
230.8

> <PUBCHEM_COORDINATE_TYPE>
2
5
10