100982150
  -OEChem-05042113263D

 47 46  0     1  0  0  0  0  0999 V2000
   -4.1357    2.0676   -1.2768 O   0  0  0  0  0  0  0  0  0  0  0  0
   -4.0591    1.7826    1.4315 O   0  0  0  0  0  0  0  0  0  0  0  0
   -6.2216    0.6755    0.0334 O   0  0  0  0  0  0  0  0  0  0  0  0
   -1.4646    2.2316    1.1765 O   0  0  0  0  0  0  0  0  0  0  0  0
   -6.3851   -2.1663   -0.9692 O   0  0  0  0  0  0  0  0  0  0  0  0
    0.5401   -2.8937   -0.4343 O   0  0  0  0  0  0  0  0  0  0  0  0
    1.0303   -2.3381    1.7102 O   0  0  0  0  0  0  0  0  0  0  0  0
    0.3698    0.2701    0.5904 N   0  0  0  0  0  0  0  0  0  0  0  0
    5.4978    0.4697   -0.6060 N   0  0  0  0  0  0  0  0  0  0  0  0
    7.0634    2.1349   -0.9911 N   0  0  0  0  0  0  0  0  0  0  0  0
    7.7577    0.3157    0.1937 N   0  0  0  0  0  0  0  0  0  0  0  0
   -3.9452    0.7421   -0.7644 C   0  0  1  0  0  0  0  0  0  0  0  0
   -3.3537    0.8310    0.6491 C   0  0  1  0  0  0  0  0  0  0  0  0
    1.2951   -0.6624   -0.0393 C   0  0  1  0  0  0  0  0  0  0  0  0
    2.7424   -0.2442    0.2599 C   0  0  0  0  0  0  0  0  0  0  0  0
   -5.2997    0.0120   -0.8398 C   0  0  1  0  0  0  0  0  0  0  0  0
   -0.9369    0.2202   -0.0498 C   0  0  0  0  0  0  0  0  0  0  0  0
   -1.8690    1.1973    0.6435 C   0  0  0  0  0  0  0  0  0  0  0  0
    3.7636   -1.2335   -0.3208 C   0  0  0  0  0  0  0  0  0  0  0  0
   -5.2586   -1.4664   -0.4551 C   0  0  0  0  0  0  0  0  0  0  0  0
    5.2023   -0.8338   -0.0094 C   0  0  0  0  0  0  0  0  0  0  0  0
    0.9607   -2.0301    0.5275 C   0  0  0  0  0  0  0  0  0  0  0  0
    6.7057    0.9181   -0.4597 C   0  0  0  0  0  0  0  0  0  0  0  0
   -3.2561    0.2323   -1.4464 H   0  0  0  0  0  0  0  0  0  0  0  0
   -3.4253   -0.1312    1.1667 H   0  0  0  0  0  0  0  0  0  0  0  0
    1.1678   -0.6705   -1.1297 H   0  0  0  0  0  0  0  0  0  0  0  0
    2.9202    0.7576   -0.1506 H   0  0  0  0  0  0  0  0  0  0  0  0
    2.8971   -0.1780    1.3453 H   0  0  0  0  0  0  0  0  0  0  0  0
   -5.7133    0.1163   -1.8504 H   0  0  0  0  0  0  0  0  0  0  0  0
   -0.8799    0.5023   -1.1066 H   0  0  0  0  0  0  0  0  0  0  0  0
   -1.3719   -0.7809    0.0363 H   0  0  0  0  0  0  0  0  0  0  0  0
    0.7345    1.2196    0.5079 H   0  0  0  0  0  0  0  0  0  0  0  0
    3.5914   -2.2372    0.0839 H   0  0  0  0  0  0  0  0  0  0  0  0
    3.6281   -1.2947   -1.4077 H   0  0  0  0  0  0  0  0  0  0  0  0
   -5.2585   -1.5924    0.6324 H   0  0  0  0  0  0  0  0  0  0  0  0
   -4.3654   -1.9425   -0.8724 H   0  0  0  0  0  0  0  0  0  0  0  0
    5.3411   -0.7987    1.0780 H   0  0  0  0  0  0  0  0  0  0  0  0
    5.8689   -1.6013   -0.4212 H   0  0  0  0  0  0  0  0  0  0  0  0
   -3.2646    2.4989   -1.3028 H   0  0  0  0  0  0  0  0  0  0  0  0
   -4.0548    2.6262    0.9478 H   0  0  0  0  0  0  0  0  0  0  0  0
   -6.2453    1.6123   -0.2268 H   0  0  0  0  0  0  0  0  0  0  0  0
   -6.2939   -3.0949   -0.6956 H   0  0  0  0  0  0  0  0  0  0  0  0
    0.3138   -3.7726   -0.0621 H   0  0  0  0  0  0  0  0  0  0  0  0
    6.3944    2.6997   -1.5030 H   0  0  0  0  0  0  0  0  0  0  0  0
    8.0025    2.5034   -0.8879 H   0  0  0  0  0  0  0  0  0  0  0  0
    7.6680   -0.5869    0.6464 H   0  0  0  0  0  0  0  0  0  0  0  0
    8.6664    0.7636    0.2448 H   0  0  0  0  0  0  0  0  0  0  0  0
  1 12  1  0  0  0  0
  1 39  1  0  0  0  0
  2 13  1  0  0  0  0
  2 40  1  0  0  0  0
  3 16  1  0  0  0  0
  3 41  1  0  0  0  0
  4 18  2  0  0  0  0
  5 20  1  0  0  0  0
  5 42  1  0  0  0  0
  6 22  1  0  0  0  0
  6 43  1  0  0  0  0
  7 22  2  0  0  0  0
  8 14  1  0  0  0  0
  8 17  1  0  0  0  0
  8 32  1  0  0  0  0
  9 21  1  0  0  0  0
  9 23  2  0  0  0  0
 10 23  1  0  0  0  0
 10 44  1  0  0  0  0
 10 45  1  0  0  0  0
 11 23  1  0  0  0  0
 11 46  1  0  0  0  0
 11 47  1  0  0  0  0
 12 13  1  0  0  0  0
 12 16  1  0  0  0  0
 12 24  1  0  0  0  0
 13 18  1  0  0  0  0
 13 25  1  0  0  0  0
 14 15  1  0  0  0  0
 14 22  1  0  0  0  0
 14 26  1  0  0  0  0
 15 19  1  0  0  0  0
 15 27  1  0  0  0  0
 15 28  1  0  0  0  0
 16 20  1  0  0  0  0
 16 29  1  0  0  0  0
 17 18  1  0  0  0  0
 17 30  1  0  0  0  0
 17 31  1  0  0  0  0
 19 21  1  0  0  0  0
 19 33  1  0  0  0  0
 19 34  1  0  0  0  0
 20 35  1  0  0  0  0
 20 36  1  0  0  0  0
 21 37  1  0  0  0  0
 21 38  1  0  0  0  0
M  END
> <PUBCHEM_COMPOUND_CID>
100982150

> <PUBCHEM_CONFORMER_RMSD>
1

> <PUBCHEM_CONFORMER_DIVERSEORDER>
1
55
77
68
29
152
61
98
70
101
154
106
165
155
36
161
94
125
40
148
140
6
65
135
38
16
141
144
89
146
112
74
103
2
52
9
115
145
139
31
86
111
79
26
113
78
95
123
54
121
163
24
76
45
90
58
42
99
51
157
25
102
132
48
143
149
158
96
167
134
136
107
82
34
19
127
137
66
62
105
142
108
60
71
5
63
116
150
13
114
84
162
122
59
39
169
10
50
109
11
8
43
133
22
119
53
21
28
27
85
168
41
69
153
87
64
118
126
37
4
117
67
104
100
49
56
7
33
151
159
72
88
57
138
147
129
124
3
166
164
120
130
44
17
110
81
93
75
30
92
80
46
83
15
128
14
73
131
156
97
18
12
35
23
160
32
47
20
91

> <PUBCHEM_MMFF94_PARTIAL_CHARGES>
31
1 -0.68
10 -0.85
11 -0.85
12 0.28
13 0.34
14 0.33
16 0.28
17 0.33
18 0.45
2 -0.68
20 0.28
21 0.25
22 0.66
23 0.55
3 -0.68
32 0.36
39 0.4
4 -0.57
40 0.4
41 0.4
42 0.4
43 0.5
44 0.4
45 0.4
46 0.4
47 0.4
5 -0.68
6 -0.65
7 -0.57
8 -0.9
9 -0.7

> <PUBCHEM_EFFECTIVE_ROTOR_COUNT>
12

> <PUBCHEM_PHARMACOPHORE_FEATURES>
17
1 1 acceptor
1 1 donor
1 10 donor
1 11 donor
1 2 acceptor
1 2 donor
1 3 acceptor
1 3 donor
1 4 acceptor
1 5 acceptor
1 5 donor
1 6 acceptor
1 7 acceptor
1 8 cation
1 8 donor
3 6 7 22 anion
4 9 10 11 23 cation

> <PUBCHEM_HEAVY_ATOM_COUNT>
23

> <PUBCHEM_ATOM_DEF_STEREO_COUNT>
4

> <PUBCHEM_ATOM_UDEF_STEREO_COUNT>
0

> <PUBCHEM_BOND_DEF_STEREO_COUNT>
0

> <PUBCHEM_BOND_UDEF_STEREO_COUNT>
0

> <PUBCHEM_ISOTOPIC_ATOM_COUNT>
0

> <PUBCHEM_COMPONENT_COUNT>
1

> <PUBCHEM_CACTVS_TAUTO_COUNT>
2

> <PUBCHEM_CONFORMER_ID>
0604DD8600000001

> <PUBCHEM_MMFF94_ENERGY>
41.0237

> <PUBCHEM_FEATURE_SELFOVERLAP>
86.43

> <PUBCHEM_SHAPE_FINGERPRINT>
11089746 13 13840267013146499182
11973863 73 12534806889686495598
12236239 1 18411417284874108774
12760667 363 9655579587357803164
13422730 43 18342729742042893970
13533116 47 16298657280112061448
13631057 29 18341046402525787959
14123256 10 18202845452813903084
14251764 30 12679172808946743428
14420673 8 10735878378303017532
14428016 204 16950855825216356964
14767858 380 18343017813567164188
15537594 2 15267338492307661004
17093844 174 11674883311646407637
21054139 6 18408318899920477759
21150785 3 18410011065589952564
21365058 113 14620789414336138818
23559900 14 18270950307177545721
34797466 226 16200432503418758184
4258327 124 17678473054975921580
4325135 7 18412545418153402412
5207 217 18342176678666357238
5385378 56 11170455891701513525
5486654 2 18343580741956181919
59755656 520 18040990774153418146

> <PUBCHEM_SHAPE_MULTIPOLES>
412.32
19.18
2.5
1.11
17.81
0.79
-0.18
-5.11
6.11
-0.85
-0.12
-0.7
-0.15
-1.7

> <PUBCHEM_SHAPE_SELFOVERLAP>
800.688

> <PUBCHEM_SHAPE_VOLUME>
246.2

> <PUBCHEM_COORDINATE_TYPE>
2
5
10