101371034
  -OEChem-05042113263D

 41 40  0     1  0  0  0  0  0999 V2000
    5.1973    0.6111    1.5610 S   0  0  0  0  0  0  0  0  0  0  0  0
   -3.2227   -1.5372    1.5894 O   0  0  0  0  0  0  0  0  0  0  0  0
   -3.2406   -1.7119   -1.1293 O   0  0  0  0  0  0  0  0  0  0  0  0
   -5.1227   -0.0478    0.1137 O   0  0  0  0  0  0  0  0  0  0  0  0
   -0.7421   -2.5398   -0.8644 O   0  0  0  0  0  0  0  0  0  0  0  0
   -4.7764    2.9058    0.6271 O   0  0  0  0  0  0  0  0  0  0  0  0
    2.7421    2.3909   -0.2557 O   0  0  0  0  0  0  0  0  0  0  0  0
    1.9706    1.4060   -2.1460 O   0  0  0  0  0  0  0  0  0  0  0  0
    1.4110   -0.8431   -0.6610 N   0  0  0  0  0  0  0  0  0  0  0  0
   -2.8486   -0.3629    0.8567 C   0  0  1  0  0  0  0  0  0  0  0  0
   -2.3524   -0.7771   -0.5354 C   0  0  1  0  0  0  0  0  0  0  0  0
   -4.0626    0.5853    0.8404 C   0  0  1  0  0  0  0  0  0  0  0  0
    2.5049    0.0118   -0.2196 C   0  0  1  0  0  0  0  0  0  0  0  0
    0.1639   -0.4728   -0.0073 C   0  0  0  0  0  0  0  0  0  0  0  0
   -0.9474   -1.3801   -0.5037 C   0  0  0  0  0  0  0  0  0  0  0  0
    3.8413   -0.6826   -0.5194 C   0  0  0  0  0  0  0  0  0  0  0  0
   -3.8047    1.9539    0.2114 C   0  0  0  0  0  0  0  0  0  0  0  0
    5.0964    0.1304   -0.1887 C   0  0  0  0  0  0  0  0  0  0  0  0
    2.3767    1.3113   -0.9944 C   0  0  0  0  0  0  0  0  0  0  0  0
    5.8161   -0.9514    2.2253 C   0  0  0  0  0  0  0  0  0  0  0  0
   -2.0525    0.1286    1.4264 H   0  0  0  0  0  0  0  0  0  0  0  0
   -2.2950    0.0868   -1.2057 H   0  0  0  0  0  0  0  0  0  0  0  0
   -4.4352    0.7167    1.8637 H   0  0  0  0  0  0  0  0  0  0  0  0
    2.4150    0.2081    0.8548 H   0  0  0  0  0  0  0  0  0  0  0  0
    0.2286   -0.5874    1.0801 H   0  0  0  0  0  0  0  0  0  0  0  0
   -0.1070    0.5607   -0.2474 H   0  0  0  0  0  0  0  0  0  0  0  0
    3.8828   -1.6450    0.0071 H   0  0  0  0  0  0  0  0  0  0  0  0
    3.8896   -0.9245   -1.5906 H   0  0  0  0  0  0  0  0  0  0  0  0
    1.6217   -1.8140   -0.4284 H   0  0  0  0  0  0  0  0  0  0  0  0
   -3.8403    1.9001   -0.8815 H   0  0  0  0  0  0  0  0  0  0  0  0
   -2.8265    2.3357    0.5210 H   0  0  0  0  0  0  0  0  0  0  0  0
    5.9937   -0.4350   -0.4624 H   0  0  0  0  0  0  0  0  0  0  0  0
    5.1176    1.0470   -0.7871 H   0  0  0  0  0  0  0  0  0  0  0  0
   -2.4319   -2.0976    1.6668 H   0  0  0  0  0  0  0  0  0  0  0  0
   -3.3469   -2.4546   -0.5107 H   0  0  0  0  0  0  0  0  0  0  0  0
   -5.2830   -0.9129    0.5283 H   0  0  0  0  0  0  0  0  0  0  0  0
   -4.5515    3.7495    0.1989 H   0  0  0  0  0  0  0  0  0  0  0  0
    2.6465    3.2274   -0.7590 H   0  0  0  0  0  0  0  0  0  0  0  0
    5.9851   -0.8395    3.2998 H   0  0  0  0  0  0  0  0  0  0  0  0
    6.7652   -1.2210    1.7548 H   0  0  0  0  0  0  0  0  0  0  0  0
    5.0882   -1.7524    2.0759 H   0  0  0  0  0  0  0  0  0  0  0  0
  1 18  1  0  0  0  0
  1 20  1  0  0  0  0
  2 10  1  0  0  0  0
  2 34  1  0  0  0  0
  3 11  1  0  0  0  0
  3 35  1  0  0  0  0
  4 12  1  0  0  0  0
  4 36  1  0  0  0  0
  5 15  2  0  0  0  0
  6 17  1  0  0  0  0
  6 37  1  0  0  0  0
  7 19  1  0  0  0  0
  7 38  1  0  0  0  0
  8 19  2  0  0  0  0
  9 13  1  0  0  0  0
  9 14  1  0  0  0  0
  9 29  1  0  0  0  0
 10 11  1  0  0  0  0
 10 12  1  0  0  0  0
 10 21  1  0  0  0  0
 11 15  1  0  0  0  0
 11 22  1  0  0  0  0
 12 17  1  0  0  0  0
 12 23  1  0  0  0  0
 13 16  1  0  0  0  0
 13 19  1  0  0  0  0
 13 24  1  0  0  0  0
 14 15  1  0  0  0  0
 14 25  1  0  0  0  0
 14 26  1  0  0  0  0
 16 18  1  0  0  0  0
 16 27  1  0  0  0  0
 16 28  1  0  0  0  0
 17 30  1  0  0  0  0
 17 31  1  0  0  0  0
 18 32  1  0  0  0  0
 18 33  1  0  0  0  0
 20 39  1  0  0  0  0
 20 40  1  0  0  0  0
 20 41  1  0  0  0  0
M  END
> <PUBCHEM_COMPOUND_CID>
101371034

> <PUBCHEM_CONFORMER_RMSD>
1

> <PUBCHEM_CONFORMER_DIVERSEORDER>
1
7
15
59
80
16
49
70
40
67
33
4
81
48
27
71
87
62
85
38
28
21
46
74
66
76
89
34
37
17
39
68
58
69
18
90
77
3
35
36
51
79
82
24
44
60
50
32
9
6
61
22
83
12
63
54
11
30
84
5
64
93
75
53
88
56
55
92
43
13
26
25
10
52
73
42
29
14
45
31
23
91
47
86
65
2
57
72
41
20
78
19
8

> <PUBCHEM_MMFF94_PARTIAL_CHARGES>
25
1 -0.46
10 0.28
11 0.34
12 0.28
13 0.33
14 0.33
15 0.45
17 0.28
18 0.23
19 0.66
2 -0.68
20 0.23
29 0.36
3 -0.68
34 0.4
35 0.4
36 0.4
37 0.4
38 0.5
4 -0.68
5 -0.57
6 -0.68
7 -0.65
8 -0.57
9 -0.9

> <PUBCHEM_EFFECTIVE_ROTOR_COUNT>
11

> <PUBCHEM_PHARMACOPHORE_FEATURES>
15
1 2 acceptor
1 2 donor
1 20 hydrophobe
1 3 acceptor
1 3 donor
1 4 acceptor
1 4 donor
1 5 acceptor
1 6 acceptor
1 6 donor
1 7 acceptor
1 8 acceptor
1 9 cation
1 9 donor
3 7 8 19 anion

> <PUBCHEM_HEAVY_ATOM_COUNT>
20

> <PUBCHEM_ATOM_DEF_STEREO_COUNT>
4

> <PUBCHEM_ATOM_UDEF_STEREO_COUNT>
0

> <PUBCHEM_BOND_DEF_STEREO_COUNT>
0

> <PUBCHEM_BOND_UDEF_STEREO_COUNT>
0

> <PUBCHEM_ISOTOPIC_ATOM_COUNT>
0

> <PUBCHEM_COMPONENT_COUNT>
1

> <PUBCHEM_CACTVS_TAUTO_COUNT>
1

> <PUBCHEM_CONFORMER_ID>
060ACC9A00000001

> <PUBCHEM_MMFF94_ENERGY>
31.117

> <PUBCHEM_FEATURE_SELFOVERLAP>
76.221

> <PUBCHEM_SHAPE_FINGERPRINT>
10014705 185 17704349987292971082
11128504 68 9871466565183822578
11405975 8 17894917381241989410
11552529 35 17243599759869479547
12403259 118 18408610266464885777
12422481 6 18115866296202077020
12596602 18 17895473725841788352
12633257 1 17312828168902391921
12670546 177 11887952151002074944
13103583 49 17748827406158714792
13675066 3 18343029899542019722
14251732 14 10953752045349928746
14251758 9 18336540504911377582
14251764 30 13768217068582722624
14251764 38 16917067797743849304
14466204 15 18337668620641654016
14528608 73 12319450005103398442
14951699 99 18200305650138084768
15375358 24 15482680099750302318
15880784 105 15285934618594461017
19078846 21 18260552242713922692
193927 3 12252192856750816203
20621476 21 13551473614454236112
20645477 56 17775292693799454575
21033648 29 18131344190010772656
212916 134 18201992231801623442
21618674 57 17603307050754616512
23402539 116 17988922279753273950
23557571 272 17059783346240569518
23559900 14 17418104204719415126
238078 22 8934995975760543471
2916195 48 17775278361366656184
33382 64 14707204375860384336
5104073 3 18186806923717568968
6328613 192 18336276725479846188
8217 86 9222645831000167489
9971528 1 18343024385262746630
9981440 41 18339366275728272083

> <PUBCHEM_SHAPE_MULTIPOLES>
369.37
13.02
2.31
1.6
4.32
0.86
0.32
3.09
6.6
-2.29
-0.26
1.7
-0.07
-1.3

> <PUBCHEM_SHAPE_SELFOVERLAP>
697.651

> <PUBCHEM_SHAPE_VOLUME>
229.2

> <PUBCHEM_COORDINATE_TYPE>
2
5
10