101930624
  -OEChem-05042113263D

 43 43  0     1  0  0  0  0  0999 V2000
   -2.4719   -0.6198   -0.9865 O   0  0  0  0  0  0  0  0  0  0  0  0
   -0.2813   -0.1227   -0.2093 O   0  0  0  0  0  0  0  0  0  0  0  0
   -0.4585    2.4276   -1.2896 O   0  0  0  0  0  0  0  0  0  0  0  0
   -4.0642    1.3088    1.7024 O   0  0  0  0  0  0  0  0  0  0  0  0
    2.7786   -2.1441   -0.3980 O   0  0  0  0  0  0  0  0  0  0  0  0
   -2.0712    2.9193    0.8502 O   0  0  0  0  0  0  0  0  0  0  0  0
   -3.8062   -2.6726    0.2405 O   0  0  0  0  0  0  0  0  0  0  0  0
    2.7978    0.3212   -1.8790 O   0  0  0  0  0  0  0  0  0  0  0  0
   -0.1929   -2.4861    1.2452 O   0  0  0  0  0  0  0  0  0  0  0  0
    5.0789    0.5775   -0.5891 O   0  0  0  0  0  0  0  0  0  0  0  0
    5.5332    0.7448    2.0315 O   0  0  0  0  0  0  0  0  0  0  0  0
   -1.2902    0.1655   -1.1761 C   0  0  2  0  0  0  0  0  0  0  0  0
   -3.1063   -0.3887    0.2789 C   0  0  1  0  0  0  0  0  0  0  0  0
   -1.6304    1.6541   -1.1576 C   0  0  1  0  0  0  0  0  0  0  0  0
   -3.5592    1.0677    0.4053 C   0  0  2  0  0  0  0  0  0  0  0  0
    0.5562   -1.1959   -0.6377 C   0  0  1  0  0  0  0  0  0  0  0  0
   -2.3719    1.9729    0.1276 C   0  0  0  0  0  0  0  0  0  0  0  0
    1.9748   -1.0158   -0.0657 C   0  0  2  0  0  0  0  0  0  0  0  0
   -4.2887   -1.3483    0.3751 C   0  0  0  0  0  0  0  0  0  0  0  0
    2.6868    0.2868   -0.4615 C   0  0  1  0  0  0  0  0  0  0  0  0
   -0.0820   -2.5057   -0.1744 C   0  0  0  0  0  0  0  0  0  0  0  0
    4.0828    0.4783    0.1289 C   0  0  0  0  0  0  0  0  0  0  0  0
    4.1860    0.5752    1.6390 C   0  0  0  0  0  0  0  0  0  0  0  0
   -0.9189   -0.0496   -2.1856 H   0  0  0  0  0  0  0  0  0  0  0  0
   -2.3992   -0.6465    1.0781 H   0  0  0  0  0  0  0  0  0  0  0  0
   -2.3085    1.8951   -1.9851 H   0  0  0  0  0  0  0  0  0  0  0  0
   -4.3346    1.3044   -0.3327 H   0  0  0  0  0  0  0  0  0  0  0  0
    0.6470   -1.2346   -1.7309 H   0  0  0  0  0  0  0  0  0  0  0  0
    1.8889   -1.0094    1.0280 H   0  0  0  0  0  0  0  0  0  0  0  0
   -5.0024   -1.1697   -0.4361 H   0  0  0  0  0  0  0  0  0  0  0  0
   -4.8032   -1.2562    1.3364 H   0  0  0  0  0  0  0  0  0  0  0  0
    2.0897    1.1559   -0.1656 H   0  0  0  0  0  0  0  0  0  0  0  0
   -1.0824   -2.6412   -0.5905 H   0  0  0  0  0  0  0  0  0  0  0  0
    0.5238   -3.3699   -0.4646 H   0  0  0  0  0  0  0  0  0  0  0  0
   -0.7278    3.3598   -1.3540 H   0  0  0  0  0  0  0  0  0  0  0  0
   -4.4099    2.2177    1.7181 H   0  0  0  0  0  0  0  0  0  0  0  0
    3.6158   -2.0708    0.0901 H   0  0  0  0  0  0  0  0  0  0  0  0
   -4.5744   -3.2656    0.3009 H   0  0  0  0  0  0  0  0  0  0  0  0
    3.2709   -0.4812   -2.1592 H   0  0  0  0  0  0  0  0  0  0  0  0
   -0.6038   -3.3266    1.5102 H   0  0  0  0  0  0  0  0  0  0  0  0
    3.6037    1.4353    1.9807 H   0  0  0  0  0  0  0  0  0  0  0  0
    3.8101   -0.3449    2.0920 H   0  0  0  0  0  0  0  0  0  0  0  0
    5.5427    0.8205    3.0008 H   0  0  0  0  0  0  0  0  0  0  0  0
  1 12  1  0  0  0  0
  1 13  1  0  0  0  0
  2 12  1  0  0  0  0
  2 16  1  0  0  0  0
  3 14  1  0  0  0  0
  3 35  1  0  0  0  0
  4 15  1  0  0  0  0
  4 36  1  0  0  0  0
  5 18  1  0  0  0  0
  5 37  1  0  0  0  0
  6 17  2  0  0  0  0
  7 19  1  0  0  0  0
  7 38  1  0  0  0  0
  8 20  1  0  0  0  0
  8 39  1  0  0  0  0
  9 21  1  0  0  0  0
  9 40  1  0  0  0  0
 10 22  2  0  0  0  0
 11 23  1  0  0  0  0
 11 43  1  0  0  0  0
 12 14  1  0  0  0  0
 12 24  1  0  0  0  0
 13 15  1  0  0  0  0
 13 19  1  0  0  0  0
 13 25  1  0  0  0  0
 14 17  1  0  0  0  0
 14 26  1  0  0  0  0
 15 17  1  0  0  0  0
 15 27  1  0  0  0  0
 16 18  1  0  0  0  0
 16 21  1  0  0  0  0
 16 28  1  0  0  0  0
 18 20  1  0  0  0  0
 18 29  1  0  0  0  0
 19 30  1  0  0  0  0
 19 31  1  0  0  0  0
 20 22  1  0  0  0  0
 20 32  1  0  0  0  0
 21 33  1  0  0  0  0
 21 34  1  0  0  0  0
 22 23  1  0  0  0  0
 23 41  1  0  0  0  0
 23 42  1  0  0  0  0
M  END
> <PUBCHEM_COMPOUND_CID>
101930624

> <PUBCHEM_CONFORMER_RMSD>
1

> <PUBCHEM_CONFORMER_DIVERSEORDER>
1
5
19
32
12
31
17
25
16
20
10
40
47
15
29
46
42
39
43
30
18
13
48
41
35
2
14
33
24
7
37
34
8
22
27
36
38
45
11
26
6
4
9
44
3
28
49
23
21

> <PUBCHEM_MMFF94_PARTIAL_CHARGES>
30
1 -0.56
10 -0.57
11 -0.68
12 0.56
13 0.28
14 0.34
15 0.34
16 0.28
17 0.45
18 0.28
19 0.28
2 -0.56
20 0.34
21 0.28
22 0.45
23 0.34
3 -0.68
35 0.4
36 0.4
37 0.4
38 0.4
39 0.4
4 -0.68
40 0.4
43 0.4
5 -0.68
6 -0.57
7 -0.68
8 -0.68
9 -0.68

> <PUBCHEM_EFFECTIVE_ROTOR_COUNT>
9

> <PUBCHEM_PHARMACOPHORE_FEATURES>
19
1 1 acceptor
1 10 acceptor
1 11 acceptor
1 11 donor
1 2 acceptor
1 3 acceptor
1 3 donor
1 4 acceptor
1 4 donor
1 5 acceptor
1 5 donor
1 6 acceptor
1 7 acceptor
1 7 donor
1 8 acceptor
1 8 donor
1 9 acceptor
1 9 donor
6 1 12 13 14 15 17 rings

> <PUBCHEM_HEAVY_ATOM_COUNT>
23

> <PUBCHEM_ATOM_DEF_STEREO_COUNT>
7

> <PUBCHEM_ATOM_UDEF_STEREO_COUNT>
0

> <PUBCHEM_BOND_DEF_STEREO_COUNT>
0

> <PUBCHEM_BOND_UDEF_STEREO_COUNT>
0

> <PUBCHEM_ISOTOPIC_ATOM_COUNT>
0

> <PUBCHEM_COMPONENT_COUNT>
1

> <PUBCHEM_CACTVS_TAUTO_COUNT>
1

> <PUBCHEM_CONFORMER_ID>
0613568000000001

> <PUBCHEM_MMFF94_ENERGY>
38.3845

> <PUBCHEM_FEATURE_SELFOVERLAP>
96.528

> <PUBCHEM_SHAPE_FINGERPRINT>
1100329 8 18048322438178523947
11132069 177 18334017159768638269
11595378 159 18261938713712169314
11715629 250 18059852848729521646
12173636 292 18199188399798899613
12346177 29 11025797608783533421
12596602 18 17895459428328436488
12633257 1 18260553341724637464
12839892 36 18261944206965154970
13140716 1 18049436251767288186
13224815 77 18408888399471652646
14081887 123 18411985749860943705
14178342 30 18336829680179069581
14223421 5 18192436268738363215
14341114 328 18187088355559795032
14787075 74 18117278262273963527
15209294 21 18272369754543981800
17349148 13 17676206892242997718
18186145 218 18270121197731259790
19862831 5 11959723876565131316
200 152 16515397491038949269
20510252 161 18410013234400893287
21069387 34 14129060313666399051
21304303 282 14925598149929261613
23402539 116 18335412525713031759
23557571 272 18341343265758312934
23559900 14 18337961069402270006
34934 24 18335138645002884599
392239 28 18340768264163231659
469060 322 18334863848125592353
5104073 3 18342459192582432346
57003041 12 18338522936912811747
6287921 2 18264788574646919142
7064713 232 18411143510789934653
7097593 13 17611180455852995611
9925002 15 17340399724597667735

> <PUBCHEM_SHAPE_MULTIPOLES>
408.77
9.51
2.81
1.47
7.99
0.46
-0.25
-1.48
-4.02
-2.37
-0.27
0.94
-0.51
0.28

> <PUBCHEM_SHAPE_SELFOVERLAP>
822.836

> <PUBCHEM_SHAPE_VOLUME>
236.6

> <PUBCHEM_COORDINATE_TYPE>
2
5
10