102305017
  -OEChem-05042113263D

 38 37  0     1  0  0  0  0  0999 V2000
   -2.8491   -0.7461    1.5214 O   0  0  0  0  0  0  0  0  0  0  0  0
   -2.5462   -2.1365   -1.0169 O   0  0  0  0  0  0  0  0  0  0  0  0
   -3.8941    1.0405   -1.4843 O   0  0  0  0  0  0  0  0  0  0  0  0
    5.0833    0.7326    1.2240 O   0  0  0  0  0  0  0  0  0  0  0  0
   -0.2213   -2.5551    0.1738 O   0  0  0  0  0  0  0  0  0  0  0  0
   -4.3436    2.3239    1.0145 O   0  0  0  0  0  0  0  0  0  0  0  0
    3.0795    2.5067   -0.4480 O   0  0  0  0  0  0  0  0  0  0  0  0
    2.8164    0.7879   -1.9027 O   0  0  0  0  0  0  0  0  0  0  0  0
    1.8334   -0.7292    0.1871 N   0  0  0  0  0  0  0  0  0  0  0  0
   -2.6657   -0.0743    0.2680 C   0  0  1  0  0  0  0  0  0  0  0  0
   -1.8284   -0.9647   -0.6605 C   0  0  1  0  0  0  0  0  0  0  0  0
   -4.0605    0.2797   -0.2819 C   0  0  1  0  0  0  0  0  0  0  0  0
    2.7883    0.3275    0.4934 C   0  0  1  0  0  0  0  0  0  0  0  0
    0.4653   -0.2441    0.3000 C   0  0  0  0  0  0  0  0  0  0  0  0
   -0.4927   -1.3724   -0.0372 C   0  0  0  0  0  0  0  0  0  0  0  0
    4.1363   -0.2854    0.9050 C   0  0  1  0  0  0  0  0  0  0  0  0
   -4.9458    1.0820    0.6711 C   0  0  0  0  0  0  0  0  0  0  0  0
    4.7474   -1.1675   -0.1765 C   0  0  0  0  0  0  0  0  0  0  0  0
    2.8977    1.1946   -0.7504 C   0  0  0  0  0  0  0  0  0  0  0  0
   -2.1153    0.8523    0.4708 H   0  0  0  0  0  0  0  0  0  0  0  0
   -1.5988   -0.4398   -1.5938 H   0  0  0  0  0  0  0  0  0  0  0  0
   -4.6097   -0.6354   -0.5347 H   0  0  0  0  0  0  0  0  0  0  0  0
    2.4274    0.9529    1.3209 H   0  0  0  0  0  0  0  0  0  0  0  0
    0.2376    0.0978    1.3154 H   0  0  0  0  0  0  0  0  0  0  0  0
    0.2878    0.5745   -0.4053 H   0  0  0  0  0  0  0  0  0  0  0  0
    4.0031   -0.8894    1.8111 H   0  0  0  0  0  0  0  0  0  0  0  0
    1.9563   -1.4999    0.8446 H   0  0  0  0  0  0  0  0  0  0  0  0
   -5.1455    0.5237    1.5909 H   0  0  0  0  0  0  0  0  0  0  0  0
   -5.9009    1.3095    0.1856 H   0  0  0  0  0  0  0  0  0  0  0  0
    5.0063   -0.5911   -1.0707 H   0  0  0  0  0  0  0  0  0  0  0  0
    4.0924   -1.9951   -0.4629 H   0  0  0  0  0  0  0  0  0  0  0  0
    5.6894   -1.5964    0.1849 H   0  0  0  0  0  0  0  0  0  0  0  0
   -1.9830   -0.8051    1.9582 H   0  0  0  0  0  0  0  0  0  0  0  0
   -2.8186   -2.5779   -0.1941 H   0  0  0  0  0  0  0  0  0  0  0  0
   -3.5512    0.4405   -2.1677 H   0  0  0  0  0  0  0  0  0  0  0  0
    4.6947    1.2838    1.9245 H   0  0  0  0  0  0  0  0  0  0  0  0
   -4.9580    2.7835    1.6119 H   0  0  0  0  0  0  0  0  0  0  0  0
    3.1402    3.0623   -1.2541 H   0  0  0  0  0  0  0  0  0  0  0  0
  1 10  1  0  0  0  0
  1 33  1  0  0  0  0
  2 11  1  0  0  0  0
  2 34  1  0  0  0  0
  3 12  1  0  0  0  0
  3 35  1  0  0  0  0
  4 16  1  0  0  0  0
  4 36  1  0  0  0  0
  5 15  2  0  0  0  0
  6 17  1  0  0  0  0
  6 37  1  0  0  0  0
  7 19  1  0  0  0  0
  7 38  1  0  0  0  0
  8 19  2  0  0  0  0
  9 13  1  0  0  0  0
  9 14  1  0  0  0  0
  9 27  1  0  0  0  0
 10 11  1  0  0  0  0
 10 12  1  0  0  0  0
 10 20  1  0  0  0  0
 11 15  1  0  0  0  0
 11 21  1  0  0  0  0
 12 17  1  0  0  0  0
 12 22  1  0  0  0  0
 13 16  1  0  0  0  0
 13 19  1  0  0  0  0
 13 23  1  0  0  0  0
 14 15  1  0  0  0  0
 14 24  1  0  0  0  0
 14 25  1  0  0  0  0
 16 18  1  0  0  0  0
 16 26  1  0  0  0  0
 17 28  1  0  0  0  0
 17 29  1  0  0  0  0
 18 30  1  0  0  0  0
 18 31  1  0  0  0  0
 18 32  1  0  0  0  0
M  END
> <PUBCHEM_COMPOUND_CID>
102305017

> <PUBCHEM_CONFORMER_RMSD>
0.8

> <PUBCHEM_CONFORMER_DIVERSEORDER>
2
33
136
28
93
125
45
48
128
54
51
72
32
132
70
105
80
77
11
78
25
65
106
133
130
109
3
26
138
31
126
89
62
69
35
42
134
40
101
14
95
43
75
63
131
37
12
44
46
88
135
139
38
66
137
94
20
41
74
100
29
7
60
115
113
118
127
117
99
49
57
116
91
47
79
81
114
123
110
15
10
84
85
55
9
68
90
34
112
53
71
24
23
92
36
16
39
96
52
107
59
21
104
17
56
76
122
119
108
5
87
18
61
111
121
13
82
64
129
103
102
22
67
8
124
98
86
97
30
58
83
50
4
120
19
27
1
73
6

> <PUBCHEM_MMFF94_PARTIAL_CHARGES>
25
1 -0.68
10 0.28
11 0.34
12 0.28
13 0.33
14 0.33
15 0.45
16 0.28
17 0.28
19 0.66
2 -0.68
27 0.36
3 -0.68
33 0.4
34 0.4
35 0.4
36 0.4
37 0.4
38 0.5
4 -0.68
5 -0.57
6 -0.68
7 -0.65
8 -0.57
9 -0.9

> <PUBCHEM_EFFECTIVE_ROTOR_COUNT>
9

> <PUBCHEM_PHARMACOPHORE_FEATURES>
16
1 1 acceptor
1 1 donor
1 2 acceptor
1 2 donor
1 3 acceptor
1 3 donor
1 4 acceptor
1 4 donor
1 5 acceptor
1 6 acceptor
1 6 donor
1 7 acceptor
1 8 acceptor
1 9 cation
1 9 donor
3 7 8 19 anion

> <PUBCHEM_HEAVY_ATOM_COUNT>
19

> <PUBCHEM_ATOM_DEF_STEREO_COUNT>
5

> <PUBCHEM_ATOM_UDEF_STEREO_COUNT>
0

> <PUBCHEM_BOND_DEF_STEREO_COUNT>
0

> <PUBCHEM_BOND_UDEF_STEREO_COUNT>
0

> <PUBCHEM_ISOTOPIC_ATOM_COUNT>
0

> <PUBCHEM_COMPONENT_COUNT>
1

> <PUBCHEM_CACTVS_TAUTO_COUNT>
1

> <PUBCHEM_CONFORMER_ID>
06190CF900000002

> <PUBCHEM_MMFF94_ENERGY>
28.9967

> <PUBCHEM_FEATURE_SELFOVERLAP>
81.284

> <PUBCHEM_SHAPE_FINGERPRINT>
10447042 23 11527944517828767972
11405975 8 17894633681588192682
11458722 120 18336264548840950938
11552529 35 16661505071456980051
128620 24 11527947863476169318
13583140 156 16660634125562476957
13675066 3 18335701663164372154
13911882 115 13118286919552465216
14004511 7 18412542119761079994
14576447 43 9799685995950754968
15375358 24 15913328009276244106
17834072 8 18272374140143597070
18186145 218 18409162216785704334
18222031 100 12324250502802982211
200 152 11815897868310306394
20279233 1 15698005162556823238
20281475 54 9006792972436351022
20645477 56 17417815088410439083
20645477 70 14836136437532210444
21503847 285 17530965791538804260
21524375 3 18408318887251730199
21864079 5 18265062503260751196
23402539 116 17489298664126626216
235170 7 15267345098099678497
23557571 272 17417525937989534230
23559900 14 18060135453910631890
23596394 208 13182738113244174090
312423 11 17823142391731154359
4028521 119 17418374671188362057
474 4 18335702715420842499
5104073 3 18114179795625666736
6328613 192 18409736188374462332
633830 44 18040998466333967066
6430166 295 18408600361879910962
9971528 1 18411695479302829142

> <PUBCHEM_SHAPE_MULTIPOLES>
339.08
11.25
2.13
1.26
0.17
0.06
-0.2
4.51
1.76
-0.54
-0.18
-0.02
0.26
-0.81

> <PUBCHEM_SHAPE_SELFOVERLAP>
658.615

> <PUBCHEM_SHAPE_VOLUME>
204

> <PUBCHEM_COORDINATE_TYPE>
2
5
10