11736675
  -OEChem-05042113263D

 28 27  0     1  0  0  0  0  0999 V2000
   -3.4516   -0.5326    0.0607 P   0  0  0  0  0  0  0  0  0  0  0  0
    0.9844   -0.4472   -1.3519 O   0  0  0  0  0  0  0  0  0  0  0  0
   -0.0367    1.7484    1.3559 O   0  0  0  0  0  0  0  0  0  0  0  0
   -1.9422   -0.0475    0.3757 O   0  0  0  0  0  0  0  0  0  0  0  0
    2.9231    1.5127   -0.5092 O   0  0  0  0  0  0  0  0  0  0  0  0
    4.3748   -0.7069   -0.6093 O   0  0  0  0  0  0  0  0  0  0  0  0
   -3.4093   -0.9304   -1.5061 O   0  0  0  0  0  0  0  0  0  0  0  0
   -4.2816    0.8552    0.0700 O   0  0  0  0  0  0  0  0  0  0  0  0
   -3.9826   -1.5949    0.9783 O   0  0  0  0  0  0  0  0  0  0  0  0
    1.0250    0.0818   -0.0191 C   0  0  2  0  0  0  0  0  0  0  0  0
    0.0514    1.2743    0.0062 C   0  0  1  0  0  0  0  0  0  0  0  0
    2.4730    0.4555    0.3252 C   0  0  1  0  0  0  0  0  0  0  0  0
   -1.3698    0.9576   -0.4521 C   0  0  0  0  0  0  0  0  0  0  0  0
    3.4386   -0.7183    0.1902 C   0  0  0  0  0  0  0  0  0  0  0  0
    3.2034   -1.9080    1.0855 C   0  0  0  0  0  0  0  0  0  0  0  0
    0.6869   -0.7039    0.6668 H   0  0  0  0  0  0  0  0  0  0  0  0
    0.4305    2.0931   -0.6151 H   0  0  0  0  0  0  0  0  0  0  0  0
    2.5384    0.8161    1.3573 H   0  0  0  0  0  0  0  0  0  0  0  0
   -1.9822    1.8612   -0.3614 H   0  0  0  0  0  0  0  0  0  0  0  0
   -1.3845    0.6362   -1.4975 H   0  0  0  0  0  0  0  0  0  0  0  0
    0.1659   -0.9647   -1.4375 H   0  0  0  0  0  0  0  0  0  0  0  0
   -0.4067    1.0305    1.8978 H   0  0  0  0  0  0  0  0  0  0  0  0
    2.8010    1.2335   -1.4328 H   0  0  0  0  0  0  0  0  0  0  0  0
    4.0880   -2.5512    1.0784 H   0  0  0  0  0  0  0  0  0  0  0  0
    2.3448   -2.4792    0.7257 H   0  0  0  0  0  0  0  0  0  0  0  0
    3.0315   -1.5711    2.1109 H   0  0  0  0  0  0  0  0  0  0  0  0
   -4.2096   -1.3197   -1.9186 H   0  0  0  0  0  0  0  0  0  0  0  0
   -5.2588    0.8243   -0.0084 H   0  0  0  0  0  0  0  0  0  0  0  0
  1  4  1  0  0  0  0
  1  7  1  0  0  0  0
  1  8  1  0  0  0  0
  1  9  2  0  0  0  0
  2 10  1  0  0  0  0
  2 21  1  0  0  0  0
  3 11  1  0  0  0  0
  3 22  1  0  0  0  0
  4 13  1  0  0  0  0
  5 12  1  0  0  0  0
  5 23  1  0  0  0  0
  6 14  2  0  0  0  0
  7 27  1  0  0  0  0
  8 28  1  0  0  0  0
 10 11  1  0  0  0  0
 10 12  1  0  0  0  0
 10 16  1  0  0  0  0
 11 13  1  0  0  0  0
 11 17  1  0  0  0  0
 12 14  1  0  0  0  0
 12 18  1  0  0  0  0
 13 19  1  0  0  0  0
 13 20  1  0  0  0  0
 14 15  1  0  0  0  0
 15 24  1  0  0  0  0
 15 25  1  0  0  0  0
 15 26  1  0  0  0  0
M  END
> <PUBCHEM_COMPOUND_CID>
11736675

> <PUBCHEM_CONFORMER_RMSD>
0.8

> <PUBCHEM_CONFORMER_DIVERSEORDER>
1
59
37
2
61
69
50
65
18
53
30
24
64
4
25
35
23
74
36
21
76
71
44
40
60
16
38
80
51
29
77
6
8
41
3
79
11
45
52
58
66
12
32
17
78
49
48
15
10
68
26
27
67
55
7
20
57
73
14
13
75
63
47
56
54
42
81
33
82
70
22
19
62
9
34
31
43
28
72
39
5
46

> <PUBCHEM_MMFF94_PARTIAL_CHARGES>
20
1 1.51
10 0.28
11 0.28
12 0.34
13 0.28
14 0.45
15 0.06
2 -0.68
21 0.4
22 0.4
23 0.4
27 0.5
28 0.5
3 -0.68
4 -0.55
5 -0.68
6 -0.57
7 -0.77
8 -0.77
9 -0.7

> <PUBCHEM_EFFECTIVE_ROTOR_COUNT>
6

> <PUBCHEM_PHARMACOPHORE_FEATURES>
11
1 2 acceptor
1 2 donor
1 3 acceptor
1 3 donor
1 5 acceptor
1 5 donor
1 6 acceptor
1 7 acceptor
1 8 acceptor
1 9 acceptor
4 1 7 8 9 anion

> <PUBCHEM_HEAVY_ATOM_COUNT>
15

> <PUBCHEM_ATOM_DEF_STEREO_COUNT>
3

> <PUBCHEM_ATOM_UDEF_STEREO_COUNT>
0

> <PUBCHEM_BOND_DEF_STEREO_COUNT>
0

> <PUBCHEM_BOND_UDEF_STEREO_COUNT>
0

> <PUBCHEM_ISOTOPIC_ATOM_COUNT>
0

> <PUBCHEM_COMPONENT_COUNT>
1

> <PUBCHEM_CACTVS_TAUTO_COUNT>
9

> <PUBCHEM_CONFORMER_ID>
00B3166300000001

> <PUBCHEM_MMFF94_ENERGY>
-9.6197

> <PUBCHEM_FEATURE_SELFOVERLAP>
55.875

> <PUBCHEM_SHAPE_FINGERPRINT>
11132069 177 17418087715453625415
11543360 7 16950288433243111046
11769659 78 18261385594980871706
122479 349 10952044563362351961
124424 183 18272084985860228525
13296908 3 18187081788786693569
13705890 14 17530683233950558658
14123260 362 11170194207443479583
14251710 61 18335425642595875050
14252887 29 17917998265461738814
14350558 41 18040722454423606170
15239191 94 18412257341775229071
15375462 189 18343301504504315395
177051 138 18342455915933360726
18186145 218 16805320011327926517
19107657 9 7853575759442152103
200 152 18409168796854644624
20281407 28 18334012791681461673
20281475 54 18334293184452897259
20645477 70 18410009944313571958
20671657 53 17967534545341944508
21293036 1 13551479146044993444
21524375 3 8862935082876827137
22485316 2 18410289216087889793
231179 274 10735887157199936866
23402539 116 18201995512850240766
23402655 69 11746928806998735379
23559900 14 18186796989795589216
58051976 100 18261392213467608645

> <PUBCHEM_SHAPE_MULTIPOLES>
265.59
8.41
1.7
1.1
2.77
0.19
-0.11
3.53
-0.22
-0.37
0.47
0.21
0.11
-0.29

> <PUBCHEM_SHAPE_SELFOVERLAP>
497.178

> <PUBCHEM_SHAPE_VOLUME>
166.2

> <PUBCHEM_COORDINATE_TYPE>
2
5
10