119856
  -OEChem-05042113263D

 38 38  0     1  0  0  0  0  0999 V2000
   -2.3431    1.7140    0.8098 O   0  0  0  0  0  0  0  0  0  0  0  0
   -2.4094    0.6768   -1.9083 O   0  0  0  0  0  0  0  0  0  0  0  0
    3.5822   -2.2741   -1.1208 O   0  0  0  0  0  0  0  0  0  0  0  0
   -0.4452    3.1009   -0.4031 O   0  0  0  0  0  0  0  0  0  0  0  0
    1.3532   -1.9980   -0.7325 O   0  0  0  0  0  0  0  0  0  0  0  0
   -4.0438   -0.1223    0.2586 O   0  0  0  0  0  0  0  0  0  0  0  0
   -3.6565   -2.7056    1.3164 O   0  0  0  0  0  0  0  0  0  0  0  0
    1.6663    0.5040    0.1113 N   0  0  1  0  0  0  0  0  0  0  0  0
    2.8844   -0.1726   -0.3469 C   0  0  1  0  0  0  0  0  0  0  0  0
    3.8278   -0.1824    0.8560 C   0  0  0  0  0  0  0  0  0  0  0  0
    2.0658    1.3791    1.2137 C   0  0  0  0  0  0  0  0  0  0  0  0
    3.0484    0.5047    1.9676 C   0  0  0  0  0  0  0  0  0  0  0  0
    0.9823    1.2321   -0.9490 C   0  0  0  0  0  0  0  0  0  0  0  0
   -1.3052    0.9398    0.2277 C   0  0  2  0  0  0  0  0  0  0  0  0
   -0.2665    1.8824   -0.3815 C   0  0  0  0  0  0  0  0  0  0  0  0
   -1.8743   -0.0524   -0.7957 C   0  0  1  0  0  0  0  0  0  0  0  0
    2.4937   -1.5594   -0.7445 C   0  0  0  0  0  0  0  0  0  0  0  0
   -2.9944   -0.9564   -0.2465 C   0  0  1  0  0  0  0  0  0  0  0  0
   -2.5657   -1.9107    0.8676 C   0  0  0  0  0  0  0  0  0  0  0  0
    3.3508    0.3346   -1.2005 H   0  0  0  0  0  0  0  0  0  0  0  0
    4.7214    0.4097    0.6238 H   0  0  0  0  0  0  0  0  0  0  0  0
    4.1567   -1.1773    1.1731 H   0  0  0  0  0  0  0  0  0  0  0  0
    1.2298    1.6664    1.8588 H   0  0  0  0  0  0  0  0  0  0  0  0
    2.5688    2.2868    0.8562 H   0  0  0  0  0  0  0  0  0  0  0  0
    2.5149   -0.2423    2.5685 H   0  0  0  0  0  0  0  0  0  0  0  0
    3.6975    1.0801    2.6341 H   0  0  0  0  0  0  0  0  0  0  0  0
    1.6177    2.0214   -1.3706 H   0  0  0  0  0  0  0  0  0  0  0  0
    0.6928    0.5778   -1.7769 H   0  0  0  0  0  0  0  0  0  0  0  0
   -0.8308    0.3918    1.0477 H   0  0  0  0  0  0  0  0  0  0  0  0
   -1.0737   -0.6867   -1.1894 H   0  0  0  0  0  0  0  0  0  0  0  0
   -3.4427   -1.5360   -1.0623 H   0  0  0  0  0  0  0  0  0  0  0  0
   -2.2102   -1.3566    1.7412 H   0  0  0  0  0  0  0  0  0  0  0  0
   -1.7646   -2.5760    0.5304 H   0  0  0  0  0  0  0  0  0  0  0  0
   -1.9519    2.2304    1.5352 H   0  0  0  0  0  0  0  0  0  0  0  0
   -2.7030    0.0278   -2.5702 H   0  0  0  0  0  0  0  0  0  0  0  0
    3.3466   -3.1892   -1.3840 H   0  0  0  0  0  0  0  0  0  0  0  0
   -4.3160    0.4708   -0.4626 H   0  0  0  0  0  0  0  0  0  0  0  0
   -3.9868   -3.2057    0.5507 H   0  0  0  0  0  0  0  0  0  0  0  0
  1 14  1  0  0  0  0
  1 34  1  0  0  0  0
  2 16  1  0  0  0  0
  2 35  1  0  0  0  0
  3 17  1  0  0  0  0
  3 36  1  0  0  0  0
  4 15  2  0  0  0  0
  5 17  2  0  0  0  0
  6 18  1  0  0  0  0
  6 37  1  0  0  0  0
  7 19  1  0  0  0  0
  7 38  1  0  0  0  0
  8  9  1  0  0  0  0
  8 11  1  0  0  0  0
  8 13  1  0  0  0  0
  9 10  1  0  0  0  0
  9 17  1  0  0  0  0
  9 20  1  0  0  0  0
 10 12  1  0  0  0  0
 10 21  1  0  0  0  0
 10 22  1  0  0  0  0
 11 12  1  0  0  0  0
 11 23  1  0  0  0  0
 11 24  1  0  0  0  0
 12 25  1  0  0  0  0
 12 26  1  0  0  0  0
 13 15  1  0  0  0  0
 13 27  1  0  0  0  0
 13 28  1  0  0  0  0
 14 15  1  0  0  0  0
 14 16  1  0  0  0  0
 14 29  1  0  0  0  0
 16 18  1  0  0  0  0
 16 30  1  0  0  0  0
 18 19  1  0  0  0  0
 18 31  1  0  0  0  0
 19 32  1  0  0  0  0
 19 33  1  0  0  0  0
M  END
> <PUBCHEM_COMPOUND_CID>
119856

> <PUBCHEM_CONFORMER_RMSD>
1

> <PUBCHEM_CONFORMER_DIVERSEORDER>
1
358
334
201
463
17
7
416
127
408
226
487
230
19
300
147
279
98
421
215
409
71
135
341
6
382
65
69
96
122
373
235
297
57
261
14
162
527
21
192
105
516
368
113
430
379
249
174
424
480
148
142
93
210
219
399
160
353
419
66
361
258
33
46
37
15
302
175
292
282
13
123
120
343
524
457
285
539
236
52
328
23
128
456
157
532
137
410
79
20
75
48
243
320
458
103
151
64
26
2
10
30
390
502
39
388
405
385
12
256
490
176
100
70
59
146
208
400
296
108
29
68
371
439
389
116
42
188
217
445
262
263
294
299
67
8
212
486
511
383
3
91
268
216
83
462
9
11
141
246
307
278
132
134
47
41
337
18
202
28
50
193
129
271
401
508
155
425
432
4
386
99
35
311
38

> <PUBCHEM_MMFF94_PARTIAL_CHARGES>
22
1 -0.68
11 0.27
13 0.33
14 0.34
15 0.45
16 0.28
17 0.66
18 0.28
19 0.28
2 -0.68
3 -0.65
34 0.4
35 0.4
36 0.5
37 0.4
38 0.4
4 -0.57
5 -0.57
6 -0.68
7 -0.68
8 -0.81
9 0.33

> <PUBCHEM_EFFECTIVE_ROTOR_COUNT>
8

> <PUBCHEM_PHARMACOPHORE_FEATURES>
14
1 1 acceptor
1 1 donor
1 2 acceptor
1 2 donor
1 3 acceptor
1 4 acceptor
1 5 acceptor
1 6 acceptor
1 6 donor
1 7 acceptor
1 7 donor
1 8 cation
3 3 5 17 anion
5 8 9 10 11 12 rings

> <PUBCHEM_HEAVY_ATOM_COUNT>
19

> <PUBCHEM_ATOM_DEF_STEREO_COUNT>
4

> <PUBCHEM_ATOM_UDEF_STEREO_COUNT>
0

> <PUBCHEM_BOND_DEF_STEREO_COUNT>
0

> <PUBCHEM_BOND_UDEF_STEREO_COUNT>
0

> <PUBCHEM_ISOTOPIC_ATOM_COUNT>
0

> <PUBCHEM_COMPONENT_COUNT>
1

> <PUBCHEM_CACTVS_TAUTO_COUNT>
10

> <PUBCHEM_CONFORMER_ID>
0001D43000000001

> <PUBCHEM_MMFF94_ENERGY>
32.9024

> <PUBCHEM_FEATURE_SELFOVERLAP>
71.16

> <PUBCHEM_SHAPE_FINGERPRINT>
10064457 181 17416131804785878530
10366900 7 18130776884818087968
10618630 7 18411703170734746596
11471102 22 17917702505286508672
12363563 72 18041555961557421635
12553582 1 18195533816284569879
12596599 1 18261402182202715195
12714826 92 17603866689573063021
14178342 30 18410011009449396897
14223421 5 18201429251614352928
14251705 54 18265058105377789691
14251745 187 18339643348025711930
14289901 80 17489293209581561512
14386348 63 18409729568822147563
15375358 24 18338781373632231621
15422964 175 18411421743192606199
16945 1 17845359106771061268
19049666 15 17984411950133988696
19107657 162 18410855494530247795
20603629 256 16988550283087150282
20645477 70 17902224852170361031
21864079 5 12463282665471449618
22721475 48 18412826854644095308
23532345 11 18342175540257561009
23557571 272 18335410249469899040
23559900 14 18338514141115318684
2748010 2 18413384324024185350
314173 41 18187367679047858817
458136 41 17917144031053097856
549884 4 7853583430190257252
568465 68 17988060271612290632
5902787 121 18041272291820598609
598444 67 17763757494053077197
81228 2 18267009566623993965
8809292 202 18125726673540790406
9709674 26 18413665803485747535

> <PUBCHEM_SHAPE_MULTIPOLES>
344.94
6.93
2.75
1.47
1.14
0.2
0.2
3.73
1.66
0.72
-0.11
-0.34
0.12
1.77

> <PUBCHEM_SHAPE_SELFOVERLAP>
693.417

> <PUBCHEM_SHAPE_VOLUME>
202.8

> <PUBCHEM_COORDINATE_TYPE>
2
5
10