121008394
  -OEChem-05042113263D

 38 38  0     1  0  0  0  0  0999 V2000
    2.6702   -1.1155   -1.4813 O   0  0  0  0  0  0  0  0  0  0  0  0
    2.4603   -1.4521    1.1730 O   0  0  0  0  0  0  0  0  0  0  0  0
    4.9625   -1.4189    0.1016 O   0  0  0  0  0  0  0  0  0  0  0  0
    6.7757    0.9788   -0.2014 O   0  0  0  0  0  0  0  0  0  0  0  0
    0.2502    2.4937   -0.2984 O   0  0  0  0  0  0  0  0  0  0  0  0
   -2.0386   -2.0974   -0.2577 O   0  0  0  0  0  0  0  0  0  0  0  0
    0.0707   -0.4562    0.3105 N   0  0  0  0  0  0  0  0  0  0  0  0
   -1.2001   -0.0004    0.2517 N   0  0  0  0  0  0  0  0  0  0  0  0
   -6.1738    0.7107   -0.1325 N   0  0  0  0  0  0  0  0  0  0  0  0
    3.1595   -0.0440   -0.6623 C   0  0  1  0  0  0  0  0  0  0  0  0
    2.4474   -0.1175    0.6952 C   0  0  1  0  0  0  0  0  0  0  0  0
    4.6898   -0.1883   -0.5804 C   0  0  1  0  0  0  0  0  0  0  0  0
    1.0095    0.3995    0.5880 C   0  0  0  0  0  0  0  0  0  0  0  0
    5.4023    0.9381    0.1659 C   0  0  0  0  0  0  0  0  0  0  0  0
    0.7955    1.8804    0.8507 C   0  0  0  0  0  0  0  0  0  0  0  0
   -2.2077   -0.8998   -0.0424 C   0  0  0  0  0  0  0  0  0  0  0  0
   -3.5843   -0.3404   -0.0720 C   0  0  0  0  0  0  0  0  0  0  0  0
   -4.6758   -1.1576    0.2006 C   0  0  0  0  0  0  0  0  0  0  0  0
   -3.7860    1.0016   -0.3747 C   0  0  0  0  0  0  0  0  0  0  0  0
   -5.9385   -0.5887    0.1578 C   0  0  0  0  0  0  0  0  0  0  0  0
   -5.0886    1.4739   -0.3917 C   0  0  0  0  0  0  0  0  0  0  0  0
    2.9226    0.8960   -1.1747 H   0  0  0  0  0  0  0  0  0  0  0  0
    2.9668    0.5037    1.4323 H   0  0  0  0  0  0  0  0  0  0  0  0
    5.1078   -0.2950   -1.5887 H   0  0  0  0  0  0  0  0  0  0  0  0
    5.3496    0.7979    1.2502 H   0  0  0  0  0  0  0  0  0  0  0  0
    4.9673    1.9074   -0.0976 H   0  0  0  0  0  0  0  0  0  0  0  0
    0.1172    2.0069    1.7001 H   0  0  0  0  0  0  0  0  0  0  0  0
    1.7461    2.3668    1.0856 H   0  0  0  0  0  0  0  0  0  0  0  0
    1.7133   -0.9857   -1.5945 H   0  0  0  0  0  0  0  0  0  0  0  0
    2.0910   -1.4437    2.0726 H   0  0  0  0  0  0  0  0  0  0  0  0
    4.5222   -2.1305   -0.3943 H   0  0  0  0  0  0  0  0  0  0  0  0
    7.1816    1.7121    0.2916 H   0  0  0  0  0  0  0  0  0  0  0  0
   -1.3658    0.9766    0.4604 H   0  0  0  0  0  0  0  0  0  0  0  0
    0.0776    3.4237   -0.0735 H   0  0  0  0  0  0  0  0  0  0  0  0
   -4.5616   -2.2083    0.4446 H   0  0  0  0  0  0  0  0  0  0  0  0
   -2.9804    1.6829   -0.6232 H   0  0  0  0  0  0  0  0  0  0  0  0
   -6.8228   -1.1829    0.3635 H   0  0  0  0  0  0  0  0  0  0  0  0
   -5.3004    2.5114   -0.6288 H   0  0  0  0  0  0  0  0  0  0  0  0
  1 10  1  0  0  0  0
  1 29  1  0  0  0  0
  2 11  1  0  0  0  0
  2 30  1  0  0  0  0
  3 12  1  0  0  0  0
  3 31  1  0  0  0  0
  4 14  1  0  0  0  0
  4 32  1  0  0  0  0
  5 15  1  0  0  0  0
  5 34  1  0  0  0  0
  6 16  2  0  0  0  0
  7  8  1  0  0  0  0
  7 13  2  0  0  0  0
  8 16  1  0  0  0  0
  8 33  1  0  0  0  0
  9 20  2  0  0  0  0
  9 21  1  0  0  0  0
 10 11  1  0  0  0  0
 10 12  1  0  0  0  0
 10 22  1  0  0  0  0
 11 13  1  0  0  0  0
 11 23  1  0  0  0  0
 12 14  1  0  0  0  0
 12 24  1  0  0  0  0
 13 15  1  0  0  0  0
 14 25  1  0  0  0  0
 14 26  1  0  0  0  0
 15 27  1  0  0  0  0
 15 28  1  0  0  0  0
 16 17  1  0  0  0  0
 17 18  2  0  0  0  0
 17 19  1  0  0  0  0
 18 20  1  0  0  0  0
 18 35  1  0  0  0  0
 19 21  2  0  0  0  0
 19 36  1  0  0  0  0
 20 37  1  0  0  0  0
 21 38  1  0  0  0  0
M  END
> <PUBCHEM_COMPOUND_CID>
121008394

> <PUBCHEM_CONFORMER_RMSD>
0.8

> <PUBCHEM_CONFORMER_DIVERSEORDER>
1
62
80
76
77
52
88
91
28
69
46
24
82
30
10
90
83
48
96
93
84
86
67
23
22
37
53
78
70
34
73
15
63
51
43
50
38
95
75
71
66
9
2
39
57
29
61
58
27
72
92
45
33
74
12
21
3
42
35
89
68
49
13
54
31
16
36
65
85
17
60
81
47
26
32
11
55
6
5
87
79
41
20
25
19
94
7
40
64
56
44
59
18
8
4
14

> <PUBCHEM_MMFF94_PARTIAL_CHARGES>
31
1 -0.68
10 0.28
11 0.34
12 0.28
13 0.33
14 0.28
15 0.34
16 0.54
17 0.09
18 -0.15
19 -0.15
2 -0.68
20 0.16
21 0.16
29 0.4
3 -0.68
30 0.4
31 0.4
32 0.4
33 0.37
34 0.4
35 0.15
36 0.15
37 0.15
38 0.15
4 -0.68
5 -0.68
6 -0.57
7 -0.51
8 -0.37
9 -0.62

> <PUBCHEM_EFFECTIVE_ROTOR_COUNT>
8

> <PUBCHEM_PHARMACOPHORE_FEATURES>
15
1 1 acceptor
1 1 donor
1 2 acceptor
1 2 donor
1 3 acceptor
1 3 donor
1 4 acceptor
1 4 donor
1 5 acceptor
1 5 donor
1 6 acceptor
1 7 acceptor
1 8 donor
1 9 acceptor
6 9 17 18 19 20 21 rings

> <PUBCHEM_HEAVY_ATOM_COUNT>
21

> <PUBCHEM_ATOM_DEF_STEREO_COUNT>
3

> <PUBCHEM_ATOM_UDEF_STEREO_COUNT>
0

> <PUBCHEM_BOND_DEF_STEREO_COUNT>
1

> <PUBCHEM_BOND_UDEF_STEREO_COUNT>
0

> <PUBCHEM_ISOTOPIC_ATOM_COUNT>
0

> <PUBCHEM_COMPONENT_COUNT>
1

> <PUBCHEM_CACTVS_TAUTO_COUNT>
2

> <PUBCHEM_CONFORMER_ID>
0736710A00000001

> <PUBCHEM_MMFF94_ENERGY>
54.1368

> <PUBCHEM_FEATURE_SELFOVERLAP>
76.18

> <PUBCHEM_SHAPE_FINGERPRINT>
10366900 7 15985107414045900538
10968037 39 18202567301714514197
12011746 2 16486978401416739956
12236239 1 17967812734405039866
12516196 113 17275102842653508320
12788726 201 17988644038771165905
13073987 5 18261110742796297891
13533116 47 13973695987951548350
13668630 136 14261346964599499293
14123256 10 18131635599879918984
14251718 22 18410576197355014211
14251752 14 18334573495245615794
14251764 18 18413389843790259947
14573314 32 17561085765561709073
15048467 5 17967813855618312052
15099037 51 18343582941232541183
15183329 4 18343586209275203801
1601671 61 18412262813721559891
17834072 8 18272366469490053845
18222031 100 13254797941066126714
200 152 15554448483570092811
20281389 69 18113616759720170837
20621476 66 18341900637203604201
20645477 70 17632585903020501918
20681677 155 18334574671993204891
21150785 3 17489583497873341909
21267235 1 18409452527369771539
21285901 2 18058456412879927244
22224240 67 15769485479232012094
23402539 116 18412821386966202318
23536379 177 18186238416023406842
23559900 14 17632006550301711857
26918003 58 10231755591803203523
300161 21 17749102279934403395
3004659 81 18334577893967821250
347723 3 16950280715582668216
34797466 226 17060347361573071184
34934 24 18412259545457487814
4073 2 17822579399244908866
4325135 7 18408324398016485652
4340502 62 16298385755983835850
4463277 17 18410573993841852976
5283173 99 18338515244611196920
542803 24 16845576413533913371
6328613 192 18341897410923639505

> <PUBCHEM_SHAPE_MULTIPOLES>
382.01
15.46
1.82
0.87
0.71
0.41
-0.03
1.13
-1.62
-0.28
0.01
0.54
-0.08
0.39

> <PUBCHEM_SHAPE_SELFOVERLAP>
777.198

> <PUBCHEM_SHAPE_VOLUME>
218.5

> <PUBCHEM_COORDINATE_TYPE>
2
5
10