121494038
  -OEChem-05042113263D

 24 24  0     1  0  0  0  0  0999 V2000
    0.6617   -1.3230    0.0993 O   0  0  0  0  0  0  0  0  0  0  0  0
    0.0905    2.3089    0.1069 O   0  0  0  0  0  0  0  0  0  0  0  0
    1.3200    0.3535   -1.4359 O   0  0  0  0  0  0  0  0  0  0  0  0
   -2.6062    1.2362    0.0845 O   0  0  0  0  0  0  0  0  0  0  0  0
   -2.0588   -1.2720    1.0690 O   0  0  0  0  0  0  0  0  0  0  0  0
    3.2705   -0.4759    0.3701 O   0  0  0  0  0  0  0  0  0  0  0  0
   -0.2099    0.9371    0.3514 C   0  0  2  0  0  0  0  0  0  0  0  0
    0.9863    0.0636   -0.0748 C   0  0  1  0  0  0  0  0  0  0  0  0
   -1.4717    0.5351   -0.4177 C   1  0  1  0  0  0  0  0  0  0  0  0
   -1.7212   -0.9669   -0.2864 C   0  0  1  0  0  0  0  0  0  0  0  0
   -0.4711   -1.7541   -0.6620 C   0  0  0  0  0  0  0  0  0  0  0  0
    2.2098    0.3575    0.7956 C   0  0  0  0  0  0  0  0  0  0  0  0
   -0.4057    0.8310    1.4262 H   0  0  0  0  0  0  0  0  0  0  0  0
   -1.3656    0.8150   -1.4728 H   0  0  0  0  0  0  0  0  0  0  0  0
   -2.5745   -1.2671   -0.9042 H   0  0  0  0  0  0  0  0  0  0  0  0
   -0.6109   -2.8174   -0.4414 H   0  0  0  0  0  0  0  0  0  0  0  0
   -0.2485   -1.6619   -1.7309 H   0  0  0  0  0  0  0  0  0  0  0  0
    2.0077    0.1390    1.8492 H   0  0  0  0  0  0  0  0  0  0  0  0
    2.5453    1.3935    0.6898 H   0  0  0  0  0  0  0  0  0  0  0  0
    0.7324    2.5975    0.7770 H   0  0  0  0  0  0  0  0  0  0  0  0
    2.2558    0.1284   -1.5713 H   0  0  0  0  0  0  0  0  0  0  0  0
   -3.3794    0.9509   -0.4316 H   0  0  0  0  0  0  0  0  0  0  0  0
   -2.2325   -2.2275    1.1195 H   0  0  0  0  0  0  0  0  0  0  0  0
    4.0363   -0.2791    0.9361 H   0  0  0  0  0  0  0  0  0  0  0  0
  1  8  1  0  0  0  0
  1 11  1  0  0  0  0
  2  7  1  0  0  0  0
  2 20  1  0  0  0  0
  3  8  1  0  0  0  0
  3 21  1  0  0  0  0
  4  9  1  0  0  0  0
  4 22  1  0  0  0  0
  5 10  1  0  0  0  0
  5 23  1  0  0  0  0
  6 12  1  0  0  0  0
  6 24  1  0  0  0  0
  7  8  1  0  0  0  0
  7  9  1  0  0  0  0
  7 13  1  0  0  0  0
  8 12  1  0  0  0  0
  9 10  1  0  0  0  0
  9 14  1  0  0  0  0
 10 11  1  0  0  0  0
 10 15  1  0  0  0  0
 11 16  1  0  0  0  0
 11 17  1  0  0  0  0
 12 18  1  0  0  0  0
 12 19  1  0  0  0  0
M  ISO  1   9  13
M  END
> <PUBCHEM_COMPOUND_CID>
121494038

> <PUBCHEM_CONFORMER_RMSD>
0.6

> <PUBCHEM_CONFORMER_DIVERSEORDER>
2
1
10
6
5
9
7
3
4
11
8

> <PUBCHEM_MMFF94_PARTIAL_CHARGES>
17
1 -0.56
10 0.28
11 0.28
12 0.28
2 -0.68
20 0.4
21 0.4
22 0.4
23 0.4
24 0.4
3 -0.68
4 -0.68
5 -0.68
6 -0.68
7 0.28
8 0.56
9 0.28

> <PUBCHEM_EFFECTIVE_ROTOR_COUNT>
2.2

> <PUBCHEM_PHARMACOPHORE_FEATURES>
12
1 1 acceptor
1 2 acceptor
1 2 donor
1 3 acceptor
1 3 donor
1 4 acceptor
1 4 donor
1 5 acceptor
1 5 donor
1 6 acceptor
1 6 donor
6 1 7 8 9 10 11 rings

> <PUBCHEM_HEAVY_ATOM_COUNT>
12

> <PUBCHEM_ATOM_DEF_STEREO_COUNT>
3

> <PUBCHEM_ATOM_UDEF_STEREO_COUNT>
1

> <PUBCHEM_BOND_DEF_STEREO_COUNT>
0

> <PUBCHEM_BOND_UDEF_STEREO_COUNT>
0

> <PUBCHEM_ISOTOPIC_ATOM_COUNT>
1

> <PUBCHEM_COMPONENT_COUNT>
1

> <PUBCHEM_CACTVS_TAUTO_COUNT>
1

> <PUBCHEM_CONFORMER_ID>
073DDA1600000002

> <PUBCHEM_MMFF94_ENERGY>
31.562

> <PUBCHEM_FEATURE_SELFOVERLAP>
60.975

> <PUBCHEM_SHAPE_FINGERPRINT>
12423570 1 17701545231914742895
13024252 1 15430312486590298946
14128692 85 17677053550534803646
16945 1 17749943371505573164
18185500 45 18337101362624771662
20653085 51 12319180697542151458
20871998 184 18343299292480243375
21040471 1 18339646629169501965
21922407 69 15937246853930509789
23235685 24 18337945671691084877
23552423 10 17687742061681543396
241688 4 16252790864100510219
2748010 2 18342182111536392279
369184 2 18059846311668133546
5084963 1 17386557102203281959

> <PUBCHEM_SHAPE_MULTIPOLES>
211.74
3.33
1.81
0.93
1.28
0.31
-0.1
-0.18
0.65
-0.61
-0.02
0.07
-0.11
0.08

> <PUBCHEM_SHAPE_SELFOVERLAP>
425.87

> <PUBCHEM_SHAPE_VOLUME>
122.6

> <PUBCHEM_COORDINATE_TYPE>
2
5
10