12305019
  -OEChem-05042113263D

 45 46  0     1  0  0  0  0  0999 V2000
   -0.2115    0.8736   -0.3515 O   0  0  0  0  0  0  0  0  0  0  0  0
   -1.8092   -0.5858   -1.3197 O   0  0  0  0  0  0  0  0  0  0  0  0
    1.8396   -1.1574   -0.2418 O   0  0  0  0  0  0  0  0  0  0  0  0
    1.5521    2.9828   -0.3157 O   0  0  0  0  0  0  0  0  0  0  0  0
   -2.1893    2.8409   -0.0471 O   0  0  0  0  0  0  0  0  0  0  0  0
    3.7408    1.6943    1.0890 O   0  0  0  0  0  0  0  0  0  0  0  0
   -4.2534    1.3831    1.3635 O   0  0  0  0  0  0  0  0  0  0  0  0
   -3.5019   -1.3436    1.8660 O   0  0  0  0  0  0  0  0  0  0  0  0
    4.0808   -0.4858   -0.5984 O   0  0  0  0  0  0  0  0  0  0  0  0
    3.7044   -2.5379    1.2464 O   0  0  0  0  0  0  0  0  0  0  0  0
   -1.2918   -3.2654   -1.2511 O   0  0  0  0  0  0  0  0  0  0  0  0
    0.9059    0.8623   -1.2434 C   0  0  1  0  0  0  0  0  0  0  0  0
    2.0429    1.6841   -0.6371 C   0  0  2  0  0  0  0  0  0  0  0  0
   -1.4426    0.7716   -1.0646 C   0  0  1  0  0  0  0  0  0  0  0  0
   -2.5864    1.5132   -0.3710 C   0  0  1  0  0  0  0  0  0  0  0  0
    2.5931    0.9945    0.6146 C   0  0  1  0  0  0  0  0  0  0  0  0
   -3.0357    0.7951    0.9001 C   0  0  2  0  0  0  0  0  0  0  0  0
   -3.2950   -0.6862    0.6180 C   0  0  1  0  0  0  0  0  0  0  0  0
    2.9720   -0.4674    0.3061 C   0  0  1  0  0  0  0  0  0  0  0  0
   -2.1166   -1.3231   -0.1310 C   0  0  1  0  0  0  0  0  0  0  0  0
    1.3410   -0.5832   -1.4545 C   0  0  0  0  0  0  0  0  0  0  0  0
    3.3788   -1.2035    1.5842 C   0  0  0  0  0  0  0  0  0  0  0  0
   -2.4182   -2.7562   -0.5611 C   0  0  0  0  0  0  0  0  0  0  0  0
    0.6430    1.3256   -2.2021 H   0  0  0  0  0  0  0  0  0  0  0  0
    2.8461    1.8235   -1.3699 H   0  0  0  0  0  0  0  0  0  0  0  0
   -1.3391    1.2540   -2.0443 H   0  0  0  0  0  0  0  0  0  0  0  0
   -3.4461    1.5833   -1.0499 H   0  0  0  0  0  0  0  0  0  0  0  0
    1.8325    1.0380    1.4050 H   0  0  0  0  0  0  0  0  0  0  0  0
   -2.3019    0.9174    1.7061 H   0  0  0  0  0  0  0  0  0  0  0  0
   -4.2163   -0.7920    0.0311 H   0  0  0  0  0  0  0  0  0  0  0  0
   -1.2230   -1.3464    0.5069 H   0  0  0  0  0  0  0  0  0  0  0  0
    0.5170   -1.2123   -1.7915 H   0  0  0  0  0  0  0  0  0  0  0  0
    2.1195   -0.6445   -2.2240 H   0  0  0  0  0  0  0  0  0  0  0  0
    2.5652   -1.2267    2.3164 H   0  0  0  0  0  0  0  0  0  0  0  0
    4.2677   -0.7644    2.0455 H   0  0  0  0  0  0  0  0  0  0  0  0
   -3.2768   -2.8004   -1.2395 H   0  0  0  0  0  0  0  0  0  0  0  0
   -2.6169   -3.3999    0.3006 H   0  0  0  0  0  0  0  0  0  0  0  0
    0.8158    2.8757    0.3106 H   0  0  0  0  0  0  0  0  0  0  0  0
   -1.9018    3.2701   -0.8709 H   0  0  0  0  0  0  0  0  0  0  0  0
    3.9230    1.3894    1.9934 H   0  0  0  0  0  0  0  0  0  0  0  0
   -4.0812    2.3292    1.5087 H   0  0  0  0  0  0  0  0  0  0  0  0
   -4.2489   -0.9042    2.3071 H   0  0  0  0  0  0  0  0  0  0  0  0
    4.5504   -1.3288   -0.4823 H   0  0  0  0  0  0  0  0  0  0  0  0
    2.9201   -2.9363    0.8318 H   0  0  0  0  0  0  0  0  0  0  0  0
   -1.1787   -2.7338   -2.0573 H   0  0  0  0  0  0  0  0  0  0  0  0
  1 12  1  0  0  0  0
  1 14  1  0  0  0  0
  2 14  1  0  0  0  0
  2 20  1  0  0  0  0
  3 19  1  0  0  0  0
  3 21  1  0  0  0  0
  4 13  1  0  0  0  0
  4 38  1  0  0  0  0
  5 15  1  0  0  0  0
  5 39  1  0  0  0  0
  6 16  1  0  0  0  0
  6 40  1  0  0  0  0
  7 17  1  0  0  0  0
  7 41  1  0  0  0  0
  8 18  1  0  0  0  0
  8 42  1  0  0  0  0
  9 19  1  0  0  0  0
  9 43  1  0  0  0  0
 10 22  1  0  0  0  0
 10 44  1  0  0  0  0
 11 23  1  0  0  0  0
 11 45  1  0  0  0  0
 12 13  1  0  0  0  0
 12 21  1  0  0  0  0
 12 24  1  0  0  0  0
 13 16  1  0  0  0  0
 13 25  1  0  0  0  0
 14 15  1  0  0  0  0
 14 26  1  0  0  0  0
 15 17  1  0  0  0  0
 15 27  1  0  0  0  0
 16 19  1  0  0  0  0
 16 28  1  0  0  0  0
 17 18  1  0  0  0  0
 17 29  1  0  0  0  0
 18 20  1  0  0  0  0
 18 30  1  0  0  0  0
 19 22  1  0  0  0  0
 20 23  1  0  0  0  0
 20 31  1  0  0  0  0
 21 32  1  0  0  0  0
 21 33  1  0  0  0  0
 22 34  1  0  0  0  0
 22 35  1  0  0  0  0
 23 36  1  0  0  0  0
 23 37  1  0  0  0  0
M  END
> <PUBCHEM_COMPOUND_CID>
12305019

> <PUBCHEM_CONFORMER_RMSD>
0.8

> <PUBCHEM_CONFORMER_DIVERSEORDER>
1
37
57
10
60
20
51
11
35
42
50
6
22
28
54
55
58
3
12
24
61
30
53
21
25
2
39
49
19
33
47
43
44
17
23
4
31
59
14
32
41
36
18
15
38
29
8
46
9
56
13
52
7
45
48
34
40
26
5
27
16

> <PUBCHEM_MMFF94_PARTIAL_CHARGES>
31
1 -0.56
10 -0.68
11 -0.68
12 0.28
13 0.28
14 0.56
15 0.28
16 0.28
17 0.28
18 0.28
19 0.56
2 -0.56
20 0.28
21 0.28
22 0.28
23 0.28
3 -0.56
38 0.4
39 0.4
4 -0.68
40 0.4
41 0.4
42 0.4
43 0.4
44 0.4
45 0.4
5 -0.68
6 -0.68
7 -0.68
8 -0.68
9 -0.68

> <PUBCHEM_EFFECTIVE_ROTOR_COUNT>
6.4

> <PUBCHEM_PHARMACOPHORE_FEATURES>
21
1 1 acceptor
1 10 acceptor
1 10 donor
1 11 acceptor
1 11 donor
1 2 acceptor
1 3 acceptor
1 4 acceptor
1 4 donor
1 5 acceptor
1 5 donor
1 6 acceptor
1 6 donor
1 7 acceptor
1 7 donor
1 8 acceptor
1 8 donor
1 9 acceptor
1 9 donor
6 2 14 15 17 18 20 rings
6 3 12 13 16 19 21 rings

> <PUBCHEM_HEAVY_ATOM_COUNT>
23

> <PUBCHEM_ATOM_DEF_STEREO_COUNT>
9

> <PUBCHEM_ATOM_UDEF_STEREO_COUNT>
0

> <PUBCHEM_BOND_DEF_STEREO_COUNT>
0

> <PUBCHEM_BOND_UDEF_STEREO_COUNT>
0

> <PUBCHEM_ISOTOPIC_ATOM_COUNT>
0

> <PUBCHEM_COMPONENT_COUNT>
1

> <PUBCHEM_CACTVS_TAUTO_COUNT>
1

> <PUBCHEM_CONFORMER_ID>
00BBC27B00000001

> <PUBCHEM_MMFF94_ENERGY>
68.3821

> <PUBCHEM_FEATURE_SELFOVERLAP>
106.719

> <PUBCHEM_SHAPE_FINGERPRINT>
11552529 35 18130781321451012054
11640471 11 14045734881316961373
12251169 10 18411702122783877413
12553582 1 18334858371931545998
12633257 1 18272364222636550458
13004483 165 17984689267899245135
13140716 1 18411135805539023163
13533116 47 18188213199548202875
14178342 30 18339911727541395056
14223421 5 18270112564604453516
14289901 80 18336818805622394152
14787075 74 16612228486473588133
15375462 189 18113622248856861732
16110190 28 18265605495261173810
16945 1 18411979182550038828
17349148 13 18130494302061367383
18981168 100 14764075634810677557
20442098 301 18409445925034320702
21731228 192 18201436922426093303
22445834 79 18334858367499188149
23184049 29 18339075016071943983
23419403 2 16168892646591238095
23559900 14 18059029318630818173
23728640 28 18340473474994046895
2748010 2 18051703135432277575
3797600 57 17484245514981012976
392239 28 17479162519986444920
58807428 26 18269008496617691763
7097593 13 18409163329118774444

> <PUBCHEM_SHAPE_MULTIPOLES>
408.77
7.49
3.13
1.49
1.35
0.59
-0.22
0.87
-3.57
-0.58
0.21
-0.14
0.42
-0.91

> <PUBCHEM_SHAPE_SELFOVERLAP>
839.995

> <PUBCHEM_SHAPE_VOLUME>
230.7

> <PUBCHEM_COORDINATE_TYPE>
2
5
10