124106743
  -OEChem-05042113263D

 45 45  0     1  0  0  0  0  0999 V2000
   -1.8680   -0.5243   -1.0744 O   0  0  0  0  0  0  0  0  0  0  0  0
    0.1137    0.1644    0.0208 O   0  0  0  0  0  0  0  0  0  0  0  0
   -3.1114    2.8448    1.0128 O   0  0  0  0  0  0  0  0  0  0  0  0
   -0.5677    2.8239   -0.3311 O   0  0  0  0  0  0  0  0  0  0  0  0
   -4.3481    0.8083   -0.4093 O   0  0  0  0  0  0  0  0  0  0  0  0
   -2.8119   -3.1500   -0.1367 O   0  0  0  0  0  0  0  0  0  0  0  0
    2.7399   -2.3858   -0.2694 O   0  0  0  0  0  0  0  0  0  0  0  0
    2.9028   -0.2131   -2.2347 O   0  0  0  0  0  0  0  0  0  0  0  0
    1.2299   -3.4640    1.8054 O   0  0  0  0  0  0  0  0  0  0  0  0
    4.4640    0.7344   -0.3379 O   0  0  0  0  0  0  0  0  0  0  0  0
    3.8308    2.1646    1.8199 O   0  0  0  0  0  0  0  0  0  0  0  0
   -2.3927    1.6444    0.7433 C   0  0  2  0  0  0  0  0  0  0  0  0
   -1.5651    1.8272   -0.5290 C   0  0  2  0  0  0  0  0  0  0  0  0
   -3.3677    0.4755    0.5768 C   0  0  2  0  0  0  0  0  0  0  0  0
   -0.8928    0.5115   -0.9292 C   0  0  2  0  0  0  0  0  0  0  0  0
   -2.6162   -0.7831    0.1239 C   0  0  1  0  0  0  0  0  0  0  0  0
    1.1859   -0.5450   -0.5930 C   0  0  2  0  0  0  0  0  0  0  0  0
   -3.5567   -1.9461   -0.1732 C   0  0  0  0  0  0  0  0  0  0  0  0
    1.7442   -1.5980    0.3823 C   0  0  1  0  0  0  0  0  0  0  0  0
    2.2187    0.4354   -1.1697 C   0  0  1  0  0  0  0  0  0  0  0  0
    0.6521   -2.5418    0.8868 C   0  0  0  0  0  0  0  0  0  0  0  0
    3.2615    0.9497   -0.1787 C   0  0  0  0  0  0  0  0  0  0  0  0
    2.7548    1.7673    0.9941 C   0  0  0  0  0  0  0  0  0  0  0  0
   -1.7275    1.4707    1.5979 H   0  0  0  0  0  0  0  0  0  0  0  0
   -2.2169    2.1822   -1.3363 H   0  0  0  0  0  0  0  0  0  0  0  0
   -3.9090    0.2986    1.5124 H   0  0  0  0  0  0  0  0  0  0  0  0
   -0.4408    0.6691   -1.9164 H   0  0  0  0  0  0  0  0  0  0  0  0
   -1.9233   -1.0815    0.9142 H   0  0  0  0  0  0  0  0  0  0  0  0
    0.7885   -1.1272   -1.4396 H   0  0  0  0  0  0  0  0  0  0  0  0
   -4.0134   -1.8551   -1.1640 H   0  0  0  0  0  0  0  0  0  0  0  0
   -4.3416   -2.0197    0.5861 H   0  0  0  0  0  0  0  0  0  0  0  0
    2.2168   -1.1237    1.2486 H   0  0  0  0  0  0  0  0  0  0  0  0
    1.7361    1.3189   -1.5992 H   0  0  0  0  0  0  0  0  0  0  0  0
   -3.6406    2.6945    1.8146 H   0  0  0  0  0  0  0  0  0  0  0  0
   -0.0770    2.9179   -1.1652 H   0  0  0  0  0  0  0  0  0  0  0  0
   -3.9258    0.7783   -1.2841 H   0  0  0  0  0  0  0  0  0  0  0  0
   -0.1214   -1.9968    1.4272 H   0  0  0  0  0  0  0  0  0  0  0  0
    0.2097   -3.1144    0.0659 H   0  0  0  0  0  0  0  0  0  0  0  0
   -3.4305   -3.8765   -0.3238 H   0  0  0  0  0  0  0  0  0  0  0  0
    3.0613   -3.0410    0.3735 H   0  0  0  0  0  0  0  0  0  0  0  0
    3.3221   -1.0150   -1.8787 H   0  0  0  0  0  0  0  0  0  0  0  0
    2.2570    2.6615    0.6091 H   0  0  0  0  0  0  0  0  0  0  0  0
    2.0594    1.1774    1.5938 H   0  0  0  0  0  0  0  0  0  0  0  0
    0.5152   -4.0498    2.1083 H   0  0  0  0  0  0  0  0  0  0  0  0
    3.4604    2.7189    2.5277 H   0  0  0  0  0  0  0  0  0  0  0  0
  1 15  1  0  0  0  0
  1 16  1  0  0  0  0
  2 15  1  0  0  0  0
  2 17  1  0  0  0  0
  3 12  1  0  0  0  0
  3 34  1  0  0  0  0
  4 13  1  0  0  0  0
  4 35  1  0  0  0  0
  5 14  1  0  0  0  0
  5 36  1  0  0  0  0
  6 18  1  0  0  0  0
  6 39  1  0  0  0  0
  7 19  1  0  0  0  0
  7 40  1  0  0  0  0
  8 20  1  0  0  0  0
  8 41  1  0  0  0  0
  9 21  1  0  0  0  0
  9 44  1  0  0  0  0
 10 22  2  0  0  0  0
 11 23  1  0  0  0  0
 11 45  1  0  0  0  0
 12 13  1  0  0  0  0
 12 14  1  0  0  0  0
 12 24  1  0  0  0  0
 13 15  1  0  0  0  0
 13 25  1  0  0  0  0
 14 16  1  0  0  0  0
 14 26  1  0  0  0  0
 15 27  1  0  0  0  0
 16 18  1  0  0  0  0
 16 28  1  0  0  0  0
 17 19  1  0  0  0  0
 17 20  1  0  0  0  0
 17 29  1  0  0  0  0
 18 30  1  0  0  0  0
 18 31  1  0  0  0  0
 19 21  1  0  0  0  0
 19 32  1  0  0  0  0
 20 22  1  0  0  0  0
 20 33  1  0  0  0  0
 21 37  1  0  0  0  0
 21 38  1  0  0  0  0
 22 23  1  0  0  0  0
 23 42  1  0  0  0  0
 23 43  1  0  0  0  0
M  END
> <PUBCHEM_COMPOUND_CID>
124106743

> <PUBCHEM_CONFORMER_RMSD>
1

> <PUBCHEM_CONFORMER_DIVERSEORDER>
2
15
58
25
55
48
54
74
50
60
27
69
64
61
47
51
46
78
26
29
33
43
17
31
57
20
62
38
71
75
19
39
32
22
36
13
65
6
76
42
10
9
68
56
30
45
12
40
70
44
21
34
53
67
59
16
72
77
18
73
37
49
14
35
23
41
79
28
7
11
3
5
8
24
66
4
52
1
63

> <PUBCHEM_MMFF94_PARTIAL_CHARGES>
31
1 -0.56
10 -0.57
11 -0.68
12 0.28
13 0.28
14 0.28
15 0.56
16 0.28
17 0.28
18 0.28
19 0.28
2 -0.56
20 0.34
21 0.28
22 0.45
23 0.34
3 -0.68
34 0.4
35 0.4
36 0.4
39 0.4
4 -0.68
40 0.4
41 0.4
44 0.4
45 0.4
5 -0.68
6 -0.68
7 -0.68
8 -0.68
9 -0.68

> <PUBCHEM_EFFECTIVE_ROTOR_COUNT>
9.2

> <PUBCHEM_PHARMACOPHORE_FEATURES>
20
1 1 acceptor
1 10 acceptor
1 11 acceptor
1 11 donor
1 2 acceptor
1 3 acceptor
1 3 donor
1 4 acceptor
1 4 donor
1 5 acceptor
1 5 donor
1 6 acceptor
1 6 donor
1 7 acceptor
1 7 donor
1 8 acceptor
1 8 donor
1 9 acceptor
1 9 donor
6 1 12 13 14 15 16 rings

> <PUBCHEM_HEAVY_ATOM_COUNT>
23

> <PUBCHEM_ATOM_DEF_STEREO_COUNT>
7

> <PUBCHEM_ATOM_UDEF_STEREO_COUNT>
1

> <PUBCHEM_BOND_DEF_STEREO_COUNT>
0

> <PUBCHEM_BOND_UDEF_STEREO_COUNT>
0

> <PUBCHEM_ISOTOPIC_ATOM_COUNT>
0

> <PUBCHEM_COMPONENT_COUNT>
1

> <PUBCHEM_CACTVS_TAUTO_COUNT>
6

> <PUBCHEM_CONFORMER_ID>
0765B7F700000002

> <PUBCHEM_MMFF94_ENERGY>
53.8326

> <PUBCHEM_FEATURE_SELFOVERLAP>
101.608

> <PUBCHEM_SHAPE_FINGERPRINT>
1100329 8 17761211416255854707
11132069 177 18409729607687901877
11578080 2 17679007215104265996
11646440 116 18049450537082385395
12173636 292 18341054017323072757
12507560 14 17400636026637832875
12553582 1 18192443076557205551
12596599 1 17988102052526637938
12633257 1 17984995786476207033
13032168 30 18338525264764000291
13140716 1 18334292037607595315
13224815 77 18408888446711122044
13533116 47 18338232644779627499
14081887 123 18341891939356109921
14178342 30 18408321107417253041
14223421 5 18412258424085583364
14787075 74 17909265033127201133
15279307 12 18261968344686431607
16945 1 18408330990527573325
17349148 13 17676484003369359834
20600515 1 17684353345533405460
21069387 34 14924486624565918160
2255824 54 17896334519013805590
23402539 116 18337669827775039940
23557571 272 18269844266481736663
23559900 14 18412267229111574900
34934 24 18411135840457930981
392239 28 18195805399703483498
474 4 18114470006396986788
57003041 12 18341333378579924209
7097593 13 17903071131930408947
7364860 26 18268147557142823574
81228 2 18120106231960859018

> <PUBCHEM_SHAPE_MULTIPOLES>
408.77
7.31
3.59
1.37
0.32
1.67
0
-1.78
-0.36
-0.69
-1.58
1.11
-0.01
-0.07

> <PUBCHEM_SHAPE_SELFOVERLAP>
818.085

> <PUBCHEM_SHAPE_VOLUME>
237.3

> <PUBCHEM_COORDINATE_TYPE>
2
5
10