125621
  -OEChem-05042113263D

 23 22  0     1  0  0  0  0  0999 V2000
    3.2766   -1.8883   -0.0370 Cl  0  0  0  0  0  0  0  0  0  0  0  0
    0.3814   -0.0799    1.6299 O   0  0  0  0  0  0  0  0  0  0  0  0
    2.1888    0.6516   -1.4893 O   0  0  0  0  0  0  0  0  0  0  0  0
   -0.5357    2.0980    0.0238 O   0  0  0  0  0  0  0  0  0  0  0  0
   -2.7997    0.8306    0.4965 O   0  0  0  0  0  0  0  0  0  0  0  0
   -3.5369   -1.6329   -0.2087 O   0  0  0  0  0  0  0  0  0  0  0  0
    0.6016   -0.0178    0.2237 C   0  0  2  0  0  0  0  0  0  0  0  0
    1.9992    0.5635   -0.0789 C   0  0  1  0  0  0  0  0  0  0  0  0
   -0.5678    0.7481   -0.4194 C   0  0  1  0  0  0  0  0  0  0  0  0
    3.1717   -0.2063    0.5412 C   0  0  0  0  0  0  0  0  0  0  0  0
   -1.9475    0.1720   -0.1013 C   0  0  0  0  0  0  0  0  0  0  0  0
   -2.2317   -1.2385   -0.5805 C   0  0  0  0  0  0  0  0  0  0  0  0
    0.5698   -1.0460   -0.1534 H   0  0  0  0  0  0  0  0  0  0  0  0
    2.0554    1.5830    0.3234 H   0  0  0  0  0  0  0  0  0  0  0  0
   -0.4665    0.7554   -1.5103 H   0  0  0  0  0  0  0  0  0  0  0  0
    3.0953   -0.2335    1.6320 H   0  0  0  0  0  0  0  0  0  0  0  0
    4.1190    0.2700    0.2701 H   0  0  0  0  0  0  0  0  0  0  0  0
   -0.4106   -0.6206    1.7881 H   0  0  0  0  0  0  0  0  0  0  0  0
   -2.1371   -1.2858   -1.6686 H   0  0  0  0  0  0  0  0  0  0  0  0
   -1.5296   -1.9339   -0.1164 H   0  0  0  0  0  0  0  0  0  0  0  0
    1.6224    1.3685   -1.8208 H   0  0  0  0  0  0  0  0  0  0  0  0
   -1.1904    2.5932   -0.4978 H   0  0  0  0  0  0  0  0  0  0  0  0
   -4.1621   -1.0657   -0.6915 H   0  0  0  0  0  0  0  0  0  0  0  0
  1 10  1  0  0  0  0
  2  7  1  0  0  0  0
  2 18  1  0  0  0  0
  3  8  1  0  0  0  0
  3 21  1  0  0  0  0
  4  9  1  0  0  0  0
  4 22  1  0  0  0  0
  5 11  2  0  0  0  0
  6 12  1  0  0  0  0
  6 23  1  0  0  0  0
  7  8  1  0  0  0  0
  7  9  1  0  0  0  0
  7 13  1  0  0  0  0
  8 10  1  0  0  0  0
  8 14  1  0  0  0  0
  9 11  1  0  0  0  0
  9 15  1  0  0  0  0
 10 16  1  0  0  0  0
 10 17  1  0  0  0  0
 11 12  1  0  0  0  0
 12 19  1  0  0  0  0
 12 20  1  0  0  0  0
M  END
> <PUBCHEM_COMPOUND_CID>
125621

> <PUBCHEM_CONFORMER_RMSD>
0.6

> <PUBCHEM_CONFORMER_DIVERSEORDER>
1
37
90
80
54
19
133
132
10
126
26
100
63
67
134
77
3
9
93
51
117
56
39
73
43
123
34
33
109
88
40
11
107
101
20
81
68
116
58
104
24
50
110
7
31
14
52
75
94
22
60
82
46
92
8
136
69
62
78
135
124
130
70
137
103
113
6
89
23
35
42
114
71
98
111
44
105
87
95
28
115
4
41
118
30
129
15
79
48
99
127
5
47
97
29
83
91
72
27
102
125
18
120
131
59
61
21
13
32
96
25
12
138
45
112
55
16
64
17
119
121
65
106
2
84
86
85
122
57
128
36
53
66
49
76
108
74
38

> <PUBCHEM_MMFF94_PARTIAL_CHARGES>
16
1 -0.29
10 0.29
11 0.45
12 0.34
18 0.4
2 -0.68
21 0.4
22 0.4
23 0.4
3 -0.68
4 -0.68
5 -0.57
6 -0.68
7 0.28
8 0.28
9 0.34

> <PUBCHEM_EFFECTIVE_ROTOR_COUNT>
5

> <PUBCHEM_PHARMACOPHORE_FEATURES>
9
1 2 acceptor
1 2 donor
1 3 acceptor
1 3 donor
1 4 acceptor
1 4 donor
1 5 acceptor
1 6 acceptor
1 6 donor

> <PUBCHEM_HEAVY_ATOM_COUNT>
12

> <PUBCHEM_ATOM_DEF_STEREO_COUNT>
3

> <PUBCHEM_ATOM_UDEF_STEREO_COUNT>
0

> <PUBCHEM_BOND_DEF_STEREO_COUNT>
0

> <PUBCHEM_BOND_UDEF_STEREO_COUNT>
0

> <PUBCHEM_ISOTOPIC_ATOM_COUNT>
0

> <PUBCHEM_COMPONENT_COUNT>
1

> <PUBCHEM_CACTVS_TAUTO_COUNT>
10

> <PUBCHEM_CONFORMER_ID>
0001EAB500000001

> <PUBCHEM_MMFF94_ENERGY>
12.7993

> <PUBCHEM_FEATURE_SELFOVERLAP>
45.697

> <PUBCHEM_SHAPE_FINGERPRINT>
10857977 72 16056879143359923050
11769659 78 18338509755748097858
12932764 1 18341342136176508976
14128692 85 18336263453513442610
14350558 41 18341896277415912790
16945 1 17916881118271062009
177051 138 18412823586221826094
18186145 218 16732986435402113358
18342897 69 18265609892779501346
19422 9 18334863826645344279
20281407 28 18272650147162508210
20653085 51 7925638850906077301
20671657 53 17168131339291617022
21061003 4 16343697725391642298
21293036 1 15792027640443122558
22485316 2 18343013423952357943
23402539 116 17968084305883296730
23552423 10 18187364302997998094
29004967 10 15913329104440170096
3248919 1 17894352210911717160
449060 23 18187925028343034870
5084963 1 17748827376146983316

> <PUBCHEM_SHAPE_MULTIPOLES>
219.48
5.58
1.72
1
0.19
0.3
-0.05
2.89
0.13
-0.29
0.18
0.36
-0.1
-0.39

> <PUBCHEM_SHAPE_SELFOVERLAP>
407.514

> <PUBCHEM_SHAPE_VOLUME>
137.4

> <PUBCHEM_COORDINATE_TYPE>
2
5
10