129689768
  -OEChem-05042113263D

 46 45  0     1  0  0  0  0  0999 V2000
   -0.5216   -1.3257    1.1813 O   0  0  0  0  0  0  0  0  0  0  0  0
    2.1000   -1.6413   -1.9211 O   0  0  0  0  0  0  0  0  0  0  0  0
    2.2613    1.0346   -0.9272 O   0  0  0  0  0  0  0  0  0  0  0  0
    3.7724   -1.5879    1.1768 O   0  0  0  0  0  0  0  0  0  0  0  0
   -0.3214   -0.8578   -2.2477 O   0  0  0  0  0  0  0  0  0  0  0  0
   -2.7023   -1.3194   -1.3686 O   0  0  0  0  0  0  0  0  0  0  0  0
   -0.3572    1.2158    1.6284 O   0  0  0  0  0  0  0  0  0  0  0  0
    5.8459    0.2128    1.1974 O   0  0  0  0  0  0  0  0  0  0  0  0
   -0.9265   -0.5373    0.0719 C   0  0  0  0  0  0  0  0  0  0  0  0
    1.4790   -1.2436   -0.7017 C   0  0  1  0  0  0  0  0  0  0  0  0
    2.2940   -0.1054   -0.0682 C   0  0  1  0  0  0  0  0  0  0  0  0
    0.0379   -0.8931   -1.0690 C   0  0  0  0  0  0  0  0  0  0  0  0
    3.7453   -0.4879    0.2669 C   0  0  1  0  0  0  0  0  0  0  0  0
   -2.3787   -0.9168   -0.2500 C   0  0  0  0  0  0  0  0  0  0  0  0
   -0.8115    0.9229    0.5214 C   0  0  0  0  0  0  0  0  0  0  0  0
   -3.3969   -0.7908    0.8772 C   0  0  0  0  0  0  0  0  0  0  0  0
   -1.2684    1.9933   -0.4647 C   0  0  0  0  0  0  0  0  0  0  0  0
    4.5289    0.6639    0.8952 C   0  0  0  0  0  0  0  0  0  0  0  0
   -4.8136   -1.1779    0.4592 C   0  0  0  0  0  0  0  0  0  0  0  0
   -1.1122    3.4191    0.0602 C   0  0  0  0  0  0  0  0  0  0  0  0
   -5.8155   -1.0403    1.5968 C   0  0  0  0  0  0  0  0  0  0  0  0
   -1.6390    4.4628   -0.9146 C   0  0  0  0  0  0  0  0  0  0  0  0
    1.4742   -2.1234   -0.0503 H   0  0  0  0  0  0  0  0  0  0  0  0
    1.8102    0.1859    0.8678 H   0  0  0  0  0  0  0  0  0  0  0  0
    4.2702   -0.8075   -0.6415 H   0  0  0  0  0  0  0  0  0  0  0  0
   -3.0744   -1.4355    1.7019 H   0  0  0  0  0  0  0  0  0  0  0  0
   -3.3946    0.2466    1.2280 H   0  0  0  0  0  0  0  0  0  0  0  0
   -2.3220    1.8095   -0.7005 H   0  0  0  0  0  0  0  0  0  0  0  0
   -0.6847    1.8798   -1.3843 H   0  0  0  0  0  0  0  0  0  0  0  0
    4.0653    0.9816    1.8349 H   0  0  0  0  0  0  0  0  0  0  0  0
    4.5999    1.5194    0.2170 H   0  0  0  0  0  0  0  0  0  0  0  0
   -5.1359   -0.5495   -0.3798 H   0  0  0  0  0  0  0  0  0  0  0  0
   -4.8226   -2.2131    0.0973 H   0  0  0  0  0  0  0  0  0  0  0  0
   -1.6444    3.5223    1.0136 H   0  0  0  0  0  0  0  0  0  0  0  0
   -0.0545    3.6204    0.2684 H   0  0  0  0  0  0  0  0  0  0  0  0
   -0.6699   -2.2617    0.9612 H   0  0  0  0  0  0  0  0  0  0  0  0
    1.6641   -2.4576   -2.2205 H   0  0  0  0  0  0  0  0  0  0  0  0
    2.6887    0.7825   -1.7636 H   0  0  0  0  0  0  0  0  0  0  0  0
    4.7053   -1.7973    1.3548 H   0  0  0  0  0  0  0  0  0  0  0  0
   -5.8594   -0.0072    1.9559 H   0  0  0  0  0  0  0  0  0  0  0  0
   -6.8161   -1.3263    1.2580 H   0  0  0  0  0  0  0  0  0  0  0  0
   -5.5427   -1.6857    2.4378 H   0  0  0  0  0  0  0  0  0  0  0  0
   -2.7055    4.3123   -1.1097 H   0  0  0  0  0  0  0  0  0  0  0  0
   -1.5062    5.4681   -0.5028 H   0  0  0  0  0  0  0  0  0  0  0  0
   -1.1040    4.4112   -1.8681 H   0  0  0  0  0  0  0  0  0  0  0  0
    6.3178    0.9621    1.5994 H   0  0  0  0  0  0  0  0  0  0  0  0
  1  9  1  0  0  0  0
  1 36  1  0  0  0  0
  2 10  1  0  0  0  0
  2 37  1  0  0  0  0
  3 11  1  0  0  0  0
  3 38  1  0  0  0  0
  4 13  1  0  0  0  0
  4 39  1  0  0  0  0
  5 12  2  0  0  0  0
  6 14  2  0  0  0  0
  7 15  2  0  0  0  0
  8 18  1  0  0  0  0
  8 46  1  0  0  0  0
  9 12  1  0  0  0  0
  9 14  1  0  0  0  0
  9 15  1  0  0  0  0
 10 11  1  0  0  0  0
 10 12  1  0  0  0  0
 10 23  1  0  0  0  0
 11 13  1  0  0  0  0
 11 24  1  0  0  0  0
 13 18  1  0  0  0  0
 13 25  1  0  0  0  0
 14 16  1  0  0  0  0
 15 17  1  0  0  0  0
 16 19  1  0  0  0  0
 16 26  1  0  0  0  0
 16 27  1  0  0  0  0
 17 20  1  0  0  0  0
 17 28  1  0  0  0  0
 17 29  1  0  0  0  0
 18 30  1  0  0  0  0
 18 31  1  0  0  0  0
 19 21  1  0  0  0  0
 19 32  1  0  0  0  0
 19 33  1  0  0  0  0
 20 22  1  0  0  0  0
 20 34  1  0  0  0  0
 20 35  1  0  0  0  0
 21 40  1  0  0  0  0
 21 41  1  0  0  0  0
 21 42  1  0  0  0  0
 22 43  1  0  0  0  0
 22 44  1  0  0  0  0
 22 45  1  0  0  0  0
M  END
> <PUBCHEM_COMPOUND_CID>
129689768

> <PUBCHEM_CONFORMER_RMSD>
1

> <PUBCHEM_CONFORMER_DIVERSEORDER>
1
14
17
63
21
59
34
85
33
70
80
64
97
82
92
68
19
102
90
77
41
93
4
48
27
94
23
83
20
72
46
39
12
76
107
91
103
101
29
81
58
86
8
84
51
55
61
60
56
89
52
100
9
11
62
40
95
26
38
30
45
43
53
57
47
32
22
6
49
73
54
96
65
79
15
87
35
24
69
18
50
5
10
36
37
16
25
67
44
104
7
42
3
99
105
78
75
71
13
106
66
28
2
98
74
31
88

> <PUBCHEM_MMFF94_PARTIAL_CHARGES>
23
1 -0.68
10 0.34
11 0.28
12 0.45
13 0.28
14 0.45
15 0.45
16 0.06
17 0.06
18 0.28
2 -0.68
3 -0.68
36 0.4
37 0.4
38 0.4
39 0.4
4 -0.68
46 0.4
5 -0.57
6 -0.57
7 -0.57
8 -0.68
9 0.46

> <PUBCHEM_EFFECTIVE_ROTOR_COUNT>
11

> <PUBCHEM_PHARMACOPHORE_FEATURES>
15
1 1 acceptor
1 1 donor
1 2 acceptor
1 2 donor
1 21 hydrophobe
1 22 hydrophobe
1 3 acceptor
1 3 donor
1 4 acceptor
1 4 donor
1 5 acceptor
1 6 acceptor
1 7 acceptor
1 8 acceptor
1 8 donor

> <PUBCHEM_HEAVY_ATOM_COUNT>
22

> <PUBCHEM_ATOM_DEF_STEREO_COUNT>
3

> <PUBCHEM_ATOM_UDEF_STEREO_COUNT>
0

> <PUBCHEM_BOND_DEF_STEREO_COUNT>
0

> <PUBCHEM_BOND_UDEF_STEREO_COUNT>
0

> <PUBCHEM_ISOTOPIC_ATOM_COUNT>
0

> <PUBCHEM_COMPONENT_COUNT>
1

> <PUBCHEM_CACTVS_TAUTO_COUNT>
27

> <PUBCHEM_CONFORMER_ID>
07BAE8A800000001

> <PUBCHEM_MMFF94_ENERGY>
24.9393

> <PUBCHEM_FEATURE_SELFOVERLAP>
76.185

> <PUBCHEM_SHAPE_FINGERPRINT>
10688039 33 18333452049626489133
11132069 177 17846502547176543887
12403814 3 18201430389653981919
12422481 6 18272658913486392753
12555020 224 8646500643118845072
12788726 201 18260845790284825381
12892183 10 18262507110090284042
12969540 114 11455612028709393243
13134695 92 18263364862267025349
13140716 1 17985823976345719890
13540713 4 18056482746990899790
14178342 30 18115870681342535302
14840074 17 18199470046511355612
16945 1 18272090504360330919
17492 89 18263359192525651018
17876694 64 17895205388975117205
17980427 23 17489028288094312919
1813 80 18339093661036548553
18769570 83 18260833662125382577
18785283 64 17831315148319174121
19784866 170 17989492939157667246
20600515 1 18340502165370133995
20602899 9 15502378928335119793
20691752 17 18126260159807512906
21041028 32 18335707174050777757
21304253 335 17346057622776920833
21304303 282 17610026029095009749
22182313 1 17915745280041693764
22713019 99 12757144710115767435
23402539 116 18340197578947706223
23419403 2 18200014240469384433
23557571 272 18268447779540641413
23558518 356 17970637285356029395
23559900 14 18266758895194681958
26918003 58 17894909663196606787
2748010 2 17772477789592490518
3187 122 18334847316691533272
3286 77 16950565518831921111
350125 39 17559975233311797318
59554788 62 18060701684702096607
621550 34 18131357375397009654
633830 44 14979659032180803354
7164475 11 18262246512305858605
7495541 125 17971767807397074187
81228 2 18194428635400137961
90316 7 18411142428674194073

> <PUBCHEM_SHAPE_MULTIPOLES>
405.8
9.19
3.23
1.62
1.87
5.98
-0.39
-4.52
5.54
-2.45
-0.78
0.11
-0.54
0.82

> <PUBCHEM_SHAPE_SELFOVERLAP>
793.807

> <PUBCHEM_SHAPE_VOLUME>
242.2

> <PUBCHEM_COORDINATE_TYPE>
2
5
10