129670434
  -OEChem-05042113263D

 30 29  0     1  0  0  0  0  0999 V2000
   -0.2131    1.6468    0.9978 O   0  0  0  0  0  0  0  0  0  0  0  0
   -0.8488    1.2216   -1.7209 O   0  0  0  0  0  0  0  0  0  0  0  0
    3.8133    1.4388    0.4612 O   0  0  0  0  0  0  0  0  0  0  0  0
   -3.1725    0.9420   -0.6028 O   0  0  0  0  0  0  0  0  0  0  0  0
   -4.0289   -0.9225    1.1079 O   0  0  0  0  0  0  0  0  0  0  0  0
    1.6064    0.5808   -0.1790 C   0  0  2  0  0  0  0  0  0  0  0  0
    0.1444    0.4389    0.3137 C   0  0  2  0  0  0  0  0  0  0  0  0
   -0.9008    0.1538   -0.7758 C   0  0  1  0  0  0  0  0  0  0  0  0
    2.1837   -0.7022   -0.8265 C   0  0  0  0  0  0  0  0  0  0  0  0
    2.5231    1.1044    0.9493 C   0  0  0  0  0  0  0  0  0  0  0  0
   -2.3332    0.1106   -0.2543 C   0  0  0  0  0  0  0  0  0  0  0  0
    2.2453   -1.9117    0.0621 C   0  0  0  0  0  0  0  0  0  0  0  0
   -2.6816   -1.0202    0.6933 C   0  0  0  0  0  0  0  0  0  0  0  0
    1.6627   -3.0812   -0.2260 C   0  0  0  0  0  0  0  0  0  0  0  0
    1.6300    1.3560   -0.9582 H   0  0  0  0  0  0  0  0  0  0  0  0
    0.1106   -0.3557    1.0678 H   0  0  0  0  0  0  0  0  0  0  0  0
   -0.6992   -0.7797   -1.3084 H   0  0  0  0  0  0  0  0  0  0  0  0
    1.6063   -0.9295   -1.7314 H   0  0  0  0  0  0  0  0  0  0  0  0
    3.2029   -0.4975   -1.1785 H   0  0  0  0  0  0  0  0  0  0  0  0
    2.6298    0.3682    1.7522 H   0  0  0  0  0  0  0  0  0  0  0  0
    2.1154    2.0191    1.3907 H   0  0  0  0  0  0  0  0  0  0  0  0
   -1.0467    1.4865    1.4711 H   0  0  0  0  0  0  0  0  0  0  0  0
    2.8253   -1.8388    0.9776 H   0  0  0  0  0  0  0  0  0  0  0  0
   -0.9563    2.0569   -1.2341 H   0  0  0  0  0  0  0  0  0  0  0  0
   -2.0455   -0.9665    1.5796 H   0  0  0  0  0  0  0  0  0  0  0  0
   -2.5356   -1.9730    0.1770 H   0  0  0  0  0  0  0  0  0  0  0  0
    4.3334    1.7561    1.2191 H   0  0  0  0  0  0  0  0  0  0  0  0
    1.7576   -3.9234    0.4507 H   1  0  0  0  0  0  0  0  0  0  0  0
    1.0836   -3.2188   -1.1323 H   0  0  0  0  0  0  0  0  0  0  0  0
   -4.2054   -1.6794    1.6923 H   0  0  0  0  0  0  0  0  0  0  0  0
  1  7  1  0  0  0  0
  1 22  1  0  0  0  0
  2  8  1  0  0  0  0
  2 24  1  0  0  0  0
  3 10  1  0  0  0  0
  3 27  1  0  0  0  0
  4 11  2  0  0  0  0
  5 13  1  0  0  0  0
  5 30  1  0  0  0  0
  6  7  1  0  0  0  0
  6  9  1  0  0  0  0
  6 10  1  0  0  0  0
  6 15  1  0  0  0  0
  7  8  1  0  0  0  0
  7 16  1  0  0  0  0
  8 11  1  0  0  0  0
  8 17  1  0  0  0  0
  9 12  1  0  0  0  0
  9 18  1  0  0  0  0
  9 19  1  0  0  0  0
 10 20  1  0  0  0  0
 10 21  1  0  0  0  0
 11 13  1  0  0  0  0
 12 14  2  0  0  0  0
 12 23  1  0  0  0  0
 13 25  1  0  0  0  0
 13 26  1  0  0  0  0
 14 28  1  0  0  0  0
 14 29  1  0  0  0  0
M  ISO  1  28   2
M  END
> <PUBCHEM_COMPOUND_CID>
129670434

> <PUBCHEM_CONFORMER_RMSD>
0.8

> <PUBCHEM_CONFORMER_DIVERSEORDER>
1
53
15
70
26
87
77
42
3
89
22
12
83
61
80
25
75
46
24
88
8
34
13
47
41
60
18
10
82
73
40
17
37
78
54
29
43
66
7
35
52
62
33
68
20
81
84
49
71
27
28
4
58
79
69
2
85
31
72
74
32
63
51
9
64
30
57
6
65
39
19
23
14
48
11
45
76
59
36
50
86
5
44
38
67
21
56
55
16

> <PUBCHEM_MMFF94_PARTIAL_CHARGES>
20
1 -0.68
10 0.28
11 0.45
12 -0.29
13 0.34
14 -0.3
2 -0.68
22 0.4
23 0.15
24 0.4
27 0.4
28 0.15
29 0.15
3 -0.68
30 0.4
4 -0.57
5 -0.68
7 0.28
8 0.34
9 0.14

> <PUBCHEM_EFFECTIVE_ROTOR_COUNT>
7

> <PUBCHEM_PHARMACOPHORE_FEATURES>
10
1 1 acceptor
1 1 donor
1 14 hydrophobe
1 2 acceptor
1 2 donor
1 3 acceptor
1 3 donor
1 4 acceptor
1 5 acceptor
1 5 donor

> <PUBCHEM_HEAVY_ATOM_COUNT>
14

> <PUBCHEM_ATOM_DEF_STEREO_COUNT>
3

> <PUBCHEM_ATOM_UDEF_STEREO_COUNT>
0

> <PUBCHEM_BOND_DEF_STEREO_COUNT>
0

> <PUBCHEM_BOND_UDEF_STEREO_COUNT>
0

> <PUBCHEM_ISOTOPIC_ATOM_COUNT>
1

> <PUBCHEM_COMPONENT_COUNT>
1

> <PUBCHEM_CACTVS_TAUTO_COUNT>
8

> <PUBCHEM_CONFORMER_ID>
07BA9D2200000001

> <PUBCHEM_MMFF94_ENERGY>
19.7852

> <PUBCHEM_FEATURE_SELFOVERLAP>
50.775

> <PUBCHEM_SHAPE_FINGERPRINT>
12202030 40 18187926140644599527
12932764 1 18130790066183339869
14252887 29 18114474439072197003
15219456 202 18408318878223555963
16945 1 18337955704787377597
18380122 1 18259978288574176156
19049666 15 18337948974731971097
20201158 50 18265049141612419806
20279233 1 18334289877359753759
20645477 70 18130780114765272855
20871998 22 18040160630020524803
21061003 4 18270394009421720416
21730867 7 18408600353648614046
22802520 49 18188486852946264701
23557571 272 17676198061531774581
2748010 2 18187364290361165639
3248919 1 18040992947279659117
458136 41 18340495568447872026
528862 383 18202556272449507886
568465 68 18195538214030258043
7364860 26 18271238310240606958
81228 2 17749667377377137765
88987 49 16589137226045140572

> <PUBCHEM_SHAPE_MULTIPOLES>
258.77
5.72
2.33
1.14
2.76
1.74
-0.17
0.3
1.3
-1.98
0.19
0.38
-0.28
1.07

> <PUBCHEM_SHAPE_SELFOVERLAP>
491.414

> <PUBCHEM_SHAPE_VOLUME>
158.1

> <PUBCHEM_COORDINATE_TYPE>
2
5
10