129636388
  -OEChem-05042113263D

 34 33  0     1  0  0  0  0  0999 V2000
   -1.7082   -0.6248   -1.4940 O   0  0  0  0  0  0  0  0  0  0  0  0
   -1.8107    2.2064   -0.8296 O   0  0  0  0  0  0  0  0  0  0  0  0
   -3.6968    0.3264    1.4145 O   0  0  0  0  0  0  0  0  0  0  0  0
    0.7666    1.7859   -1.2528 O   0  0  0  0  0  0  0  0  0  0  0  0
   -3.7282   -2.4159    0.6573 O   0  0  0  0  0  0  0  0  0  0  0  0
    3.9031   -2.4880    0.0358 O   0  0  0  0  0  0  0  0  0  0  0  0
    3.6237   -0.7430   -1.3922 O   0  0  0  0  0  0  0  0  0  0  0  0
    2.4640    0.7175    0.6268 N   0  0  2  0  0  0  0  0  0  0  0  0
   -1.9324   -0.1310   -0.1667 C   0  0  1  0  0  0  0  0  0  0  0  0
   -1.2150    1.2162   -0.0049 C   0  0  1  0  0  0  0  0  0  0  0  0
   -3.4551   -0.0691    0.0589 C   0  0  1  0  0  0  0  0  0  0  0  0
    0.2766    1.1313   -0.3317 C   0  0  0  0  0  0  0  0  0  0  0  0
    1.1048    0.2033    0.5385 C   0  0  0  0  0  0  0  0  0  0  0  0
   -4.1992   -1.3794   -0.1954 C   0  0  0  0  0  0  0  0  0  0  0  0
    3.4009   -0.3529    0.9760 C   0  0  0  0  0  0  0  0  0  0  0  0
    2.5448    1.8007    1.6095 C   0  0  0  0  0  0  0  0  0  0  0  0
    3.6611   -1.1834   -0.2502 C   0  0  0  0  0  0  0  0  0  0  0  0
   -1.4968   -0.8569    0.5304 H   0  0  0  0  0  0  0  0  0  0  0  0
   -1.2954    1.5745    1.0269 H   0  0  0  0  0  0  0  0  0  0  0  0
   -3.9033    0.6861   -0.5980 H   0  0  0  0  0  0  0  0  0  0  0  0
    1.0616   -0.7759    0.0468 H   0  0  0  0  0  0  0  0  0  0  0  0
    0.6452    0.0983    1.5283 H   0  0  0  0  0  0  0  0  0  0  0  0
   -4.0874   -1.7034   -1.2347 H   0  0  0  0  0  0  0  0  0  0  0  0
   -5.2656   -1.2464    0.0168 H   0  0  0  0  0  0  0  0  0  0  0  0
    3.0161   -0.9764    1.7918 H   0  0  0  0  0  0  0  0  0  0  0  0
    4.3748    0.0498    1.2795 H   0  0  0  0  0  0  0  0  0  0  0  0
   -0.7644   -0.8409   -1.5772 H   0  0  0  0  0  0  0  0  0  0  0  0
   -1.8091    1.8706   -1.7425 H   0  0  0  0  0  0  0  0  0  0  0  0
    3.5537    2.2282    1.6245 H   0  0  0  0  0  0  0  0  0  0  0  0
    2.3024    1.4588    2.6225 H   0  0  0  0  0  0  0  0  0  0  0  0
    1.8669    2.6218    1.3519 H   0  0  0  0  0  0  0  0  0  0  0  0
   -3.4391    1.2596    1.4998 H   0  0  0  0  0  0  0  0  0  0  0  0
   -4.2452   -3.2130    0.4501 H   0  0  0  0  0  0  0  0  0  0  0  0
    4.0518   -3.0189   -0.7756 H   0  0  0  0  0  0  0  0  0  0  0  0
  1  9  1  0  0  0  0
  1 27  1  0  0  0  0
  2 10  1  0  0  0  0
  2 28  1  0  0  0  0
  3 11  1  0  0  0  0
  3 32  1  0  0  0  0
  4 12  2  0  0  0  0
  5 14  1  0  0  0  0
  5 33  1  0  0  0  0
  6 17  1  0  0  0  0
  6 34  1  0  0  0  0
  7 17  2  0  0  0  0
  8 13  1  0  0  0  0
  8 15  1  0  0  0  0
  8 16  1  0  0  0  0
  9 10  1  0  0  0  0
  9 11  1  0  0  0  0
  9 18  1  0  0  0  0
 10 12  1  0  0  0  0
 10 19  1  0  0  0  0
 11 14  1  0  0  0  0
 11 20  1  0  0  0  0
 12 13  1  0  0  0  0
 13 21  1  0  0  0  0
 13 22  1  0  0  0  0
 14 23  1  0  0  0  0
 14 24  1  0  0  0  0
 15 17  1  0  0  0  0
 15 25  1  0  0  0  0
 15 26  1  0  0  0  0
 16 29  1  0  0  0  0
 16 30  1  0  0  0  0
 16 31  1  0  0  0  0
M  END
> <PUBCHEM_COMPOUND_CID>
129636388

> <PUBCHEM_CONFORMER_RMSD>
1

> <PUBCHEM_CONFORMER_DIVERSEORDER>
2
43
74
102
19
46
131
72
68
87
89
98
127
26
116
30
80
48
37
108
53
10
58
27
33
101
11
129
12
22
7
111
119
17
134
103
18
34
23
73
107
123
93
9
92
125
44
85
66
130
128
94
4
90
83
14
104
70
63
35
88
8
6
91
126
97
84
120
112
55
60
56
62
50
75
47
29
95
42
3
54
57
117
115
1
21
67
78
16
49
100
61
135
114
41
52
69
64
51
20
59
15
40
81
45
122
121
113
5
76
96
124
25
71
13
38
32
86
82
109
99
79
28
106
24
132
110
105
118
31
133
39
36
77
65

> <PUBCHEM_MMFF94_PARTIAL_CHARGES>
22
1 -0.68
10 0.34
11 0.28
12 0.45
13 0.33
14 0.28
15 0.33
16 0.27
17 0.66
2 -0.68
27 0.4
28 0.4
3 -0.68
32 0.4
33 0.4
34 0.5
4 -0.57
5 -0.68
6 -0.65
7 -0.57
8 -0.81
9 0.28

> <PUBCHEM_EFFECTIVE_ROTOR_COUNT>
8

> <PUBCHEM_PHARMACOPHORE_FEATURES>
13
1 1 acceptor
1 1 donor
1 2 acceptor
1 2 donor
1 3 acceptor
1 3 donor
1 4 acceptor
1 5 acceptor
1 5 donor
1 6 acceptor
1 7 acceptor
1 8 cation
3 6 7 17 anion

> <PUBCHEM_HEAVY_ATOM_COUNT>
17

> <PUBCHEM_ATOM_DEF_STEREO_COUNT>
3

> <PUBCHEM_ATOM_UDEF_STEREO_COUNT>
0

> <PUBCHEM_BOND_DEF_STEREO_COUNT>
0

> <PUBCHEM_BOND_UDEF_STEREO_COUNT>
0

> <PUBCHEM_ISOTOPIC_ATOM_COUNT>
0

> <PUBCHEM_COMPONENT_COUNT>
1

> <PUBCHEM_CACTVS_TAUTO_COUNT>
10

> <PUBCHEM_CONFORMER_ID>
07BA182400000002

> <PUBCHEM_MMFF94_ENERGY>
32.0604

> <PUBCHEM_FEATURE_SELFOVERLAP>
66.053

> <PUBCHEM_SHAPE_FINGERPRINT>
10618630 7 18333726940022345365
11543360 7 12829488173071717737
12006461 19 18410575093305936603
122479 349 9583511027656250482
12251169 10 17346593118645511232
12553582 1 17821729442364659787
12596599 1 18261110833112145179
12892183 10 17988080127156273233
13296908 3 18334283262799225860
13533116 47 18201717409913760187
13675066 3 18341889740570360921
14123255 52 10087651394290208247
14251710 61 18410573976635629450
14251731 5 18341049597749399630
14252887 29 18336824311464369768
14289901 80 17488734717877858145
15239191 94 18410576154326349962
16752209 62 17676474026487287833
17804303 29 18343024350233075389
17959699 21 10809608312763680943
1813 80 17894633677509633045
18915474 69 18040443191487103790
19107657 162 18336819874773663291
193927 3 17895483647601578195
19766037 51 17676212385368804913
20281407 28 18334574642139098841
20281475 54 18409735049215929712
20645477 70 18059556001869783940
20671657 53 17386275575697734261
20871998 22 18336543914772538837
20871999 31 17822574910750454428
23402539 116 17168709597151955382
23402655 69 12179835087506697018
23503958 8 18343588464544829035
23557571 272 17458890575255706196
23559900 14 18408876330898803036
3082319 5 14056991698557734344
31174 14 17917423280699003896
328317 168 9727344706517106635
449060 23 18187363224850274737
6049 1 18340475691049628048
83771 10 18411982442678051380
94968 8 18334576845742262258

> <PUBCHEM_SHAPE_MULTIPOLES>
303.79
8.5
2.26
1.29
1.15
0.44
-0.03
5.4
1.42
-0.45
0.01
-0.29
-0.31
0.94

> <PUBCHEM_SHAPE_SELFOVERLAP>
587.588

> <PUBCHEM_SHAPE_VOLUME>
183.9

> <PUBCHEM_COORDINATE_TYPE>
2
5
10