129674224
  -OEChem-05042113263D

 27 28  0     1  0  0  0  0  0999 V2000
    2.6950   -0.8963   -0.0369 S   0  0  0  0  0  0  0  0  0  0  0  0
   -0.2817   -0.8025    0.7181 O   0  0  0  0  0  0  0  0  0  0  0  0
    1.5006   -0.1215   -0.8096 O   0  0  0  0  0  0  0  0  0  0  0  0
    1.9943   -0.1246    1.2037 O   0  0  0  0  0  0  0  0  0  0  0  0
    1.3667    2.4679    0.2113 O   0  0  0  0  0  0  0  0  0  0  0  0
   -0.5475    1.7792   -1.6663 O   0  0  0  0  0  0  0  0  0  0  0  0
   -2.5247    1.0238    1.3065 O   0  0  0  0  0  0  0  0  0  0  0  0
   -1.2253   -1.0499   -1.4335 O   0  0  0  0  0  0  0  0  0  0  0  0
   -3.6625   -1.5849   -0.2864 O   0  0  0  0  0  0  0  0  0  0  0  0
    2.4362   -2.3169    0.0235 O   0  0  0  0  0  0  0  0  0  0  0  0
    3.9721   -0.2976   -0.3494 O   0  0  0  0  0  0  0  0  0  0  0  0
    0.7961    0.1179    0.4306 C   0  0  0  0  0  0  0  0  0  0  0  0
    0.3312    1.5609    0.5795 C   0  0  2  0  0  0  0  0  0  0  0  0
   -0.9072    1.8171   -0.2871 C   0  0  2  0  0  0  0  0  0  0  0  0
   -2.0037    0.7786    0.0007 C   0  0  1  0  0  0  0  0  0  0  0  0
   -1.4671   -0.6699   -0.0772 C   0  0  2  0  0  0  0  0  0  0  0  0
   -2.4725   -1.6813    0.4723 C   0  0  0  0  0  0  0  0  0  0  0  0
    0.0884    1.7523    1.6319 H   0  0  0  0  0  0  0  0  0  0  0  0
   -1.2727    2.8308   -0.0837 H   0  0  0  0  0  0  0  0  0  0  0  0
   -2.8191    0.9033   -0.7223 H   0  0  0  0  0  0  0  0  0  0  0  0
   -2.6945   -1.5070    1.5306 H   0  0  0  0  0  0  0  0  0  0  0  0
   -2.0883   -2.7044    0.3854 H   0  0  0  0  0  0  0  0  0  0  0  0
    1.0201    3.3695    0.3236 H   0  0  0  0  0  0  0  0  0  0  0  0
   -1.3505    1.9610   -2.1835 H   0  0  0  0  0  0  0  0  0  0  0  0
   -2.8903    1.9248    1.3122 H   0  0  0  0  0  0  0  0  0  0  0  0
   -1.2357   -2.0195   -1.4950 H   0  0  0  0  0  0  0  0  0  0  0  0
   -4.2865   -2.2377    0.0739 H   0  0  0  0  0  0  0  0  0  0  0  0
  1  3  1  0  0  0  0
  1  4  1  0  0  0  0
  1 10  2  0  0  0  0
  1 11  2  0  0  0  0
  2 12  1  0  0  0  0
  2 16  1  0  0  0  0
  3 12  1  0  0  0  0
  4 12  1  0  0  0  0
  5 13  1  0  0  0  0
  5 23  1  0  0  0  0
  6 14  1  0  0  0  0
  6 24  1  0  0  0  0
  7 15  1  0  0  0  0
  7 25  1  0  0  0  0
  8 16  1  0  0  0  0
  8 26  1  0  0  0  0
  9 17  1  0  0  0  0
  9 27  1  0  0  0  0
 12 13  1  0  0  0  0
 13 14  1  0  0  0  0
 13 18  1  0  0  0  0
 14 15  1  0  0  0  0
 14 19  1  0  0  0  0
 15 16  1  0  0  0  0
 15 20  1  0  0  0  0
 16 17  1  0  0  0  0
 17 21  1  0  0  0  0
 17 22  1  0  0  0  0
M  END
> <PUBCHEM_COMPOUND_CID>
129674224

> <PUBCHEM_CONFORMER_RMSD>
0.6

> <PUBCHEM_CONFORMER_DIVERSEORDER>
1
2
3

> <PUBCHEM_MMFF94_PARTIAL_CHARGES>
22
1 1.67
10 -0.65
11 -0.65
12 0.77
13 0.28
14 0.28
15 0.28
16 0.56
17 0.28
2 -0.54
23 0.4
24 0.4
25 0.4
26 0.4
27 0.4
3 -0.44
4 -0.44
5 -0.68
6 -0.68
7 -0.68
8 -0.68
9 -0.68

> <PUBCHEM_EFFECTIVE_ROTOR_COUNT>
2.4

> <PUBCHEM_PHARMACOPHORE_FEATURES>
15
1 10 acceptor
1 11 acceptor
1 2 acceptor
1 5 acceptor
1 5 donor
1 6 acceptor
1 6 donor
1 7 acceptor
1 7 donor
1 8 acceptor
1 8 donor
1 9 acceptor
1 9 donor
4 1 3 4 12 rings
6 2 12 13 14 15 16 rings

> <PUBCHEM_HEAVY_ATOM_COUNT>
17

> <PUBCHEM_ATOM_DEF_STEREO_COUNT>
4

> <PUBCHEM_ATOM_UDEF_STEREO_COUNT>
0

> <PUBCHEM_BOND_DEF_STEREO_COUNT>
0

> <PUBCHEM_BOND_UDEF_STEREO_COUNT>
0

> <PUBCHEM_ISOTOPIC_ATOM_COUNT>
0

> <PUBCHEM_COMPONENT_COUNT>
1

> <PUBCHEM_CACTVS_TAUTO_COUNT>
1

> <PUBCHEM_CONFORMER_ID>
07BAABF000000001

> <PUBCHEM_MMFF94_ENERGY>
33.4976

> <PUBCHEM_FEATURE_SELFOVERLAP>
76.231

> <PUBCHEM_SHAPE_FINGERPRINT>
12423570 1 17898308120562511373
12524768 44 18191297389292490011
13024252 1 16805898281334604281
14817 1 18197796400682111933
15001771 113 18411139160093292705
15375462 189 18335148565770794154
161256 15 18336258063029007112
16945 1 18338519629745977689
17844478 74 17896336713309382264
19868273 325 18335981974009643060
20645476 183 17391911453199969688
20645477 70 18048303737938467999
20871998 184 18130788919221447439
20871999 31 18335980878666323901
21501502 16 18340214080037984208
22721475 48 18410577300977246410
22802520 49 18127686037568516986
23402539 116 17967249780752802078
23419403 2 17118256478459992641
23557571 272 18271252629809044166
23559900 14 17981033121528522466
241688 4 18333726940228242833
2748010 2 18191008183448629373
598444 67 17765727818832126879
7364860 26 18126003999246907240
81228 2 18261386707256296601

> <PUBCHEM_SHAPE_MULTIPOLES>
295.01
4.69
2.3
1.09
1.35
0.44
-0.17
-2.55
0.08
-0.28
-0.13
-0.24
0.21
-0.02

> <PUBCHEM_SHAPE_SELFOVERLAP>
610.238

> <PUBCHEM_SHAPE_VOLUME>
169.1

> <PUBCHEM_COORDINATE_TYPE>
2
5
10