129644209
  -OEChem-05042113263D

 34 34  0     1  0  0  0  0  0999 V2000
   -2.7323   -1.6903    0.0987 O   0  0  0  0  0  0  0  0  0  0  0  0
   -0.9157   -0.4868   -1.7357 O   0  0  0  0  0  0  0  0  0  0  0  0
   -2.6599    1.9643    0.0343 O   0  0  0  0  0  0  0  0  0  0  0  0
    2.2488   -2.5603    0.1803 O   0  0  0  0  0  0  0  0  0  0  0  0
   -0.1985   -2.1458    1.1107 O   0  0  0  0  0  0  0  0  0  0  0  0
   -5.3991    1.5570   -0.1555 O   0  0  0  0  0  0  0  0  0  0  0  0
   -2.1922   -0.3852    0.3092 C   0  0  1  0  0  0  0  0  0  0  0  0
   -0.7972   -0.3065   -0.3304 C   0  0  1  0  0  0  0  0  0  0  0  0
   -3.1717    0.6619   -0.2475 C   0  0  1  0  0  0  0  0  0  0  0  0
    0.1542   -1.3758    0.2145 C   0  0  0  0  0  0  0  0  0  0  0  0
    1.5556   -1.4570   -0.3869 C   0  0  1  0  0  0  0  0  0  0  0  0
   -4.5602    0.5383    0.3803 C   0  0  0  0  0  0  0  0  0  0  0  0
    2.3640   -0.2076   -0.1403 C   0  0  0  0  0  0  0  0  0  0  0  0
    3.3369    0.1864   -1.0588 C   0  0  0  0  0  0  0  0  0  0  0  0
    2.1384    0.5536    1.0064 C   0  0  0  0  0  0  0  0  0  0  0  0
    4.0844    1.3418   -0.8306 C   0  0  0  0  0  0  0  0  0  0  0  0
    2.8858    1.7089    1.2348 C   0  0  0  0  0  0  0  0  0  0  0  0
    3.8588    2.1031    0.3164 C   0  0  0  0  0  0  0  0  0  0  0  0
   -2.0914   -0.2409    1.3929 H   0  0  0  0  0  0  0  0  0  0  0  0
   -0.3659    0.6814   -0.1503 H   0  0  0  0  0  0  0  0  0  0  0  0
   -3.2700    0.5758   -1.3354 H   0  0  0  0  0  0  0  0  0  0  0  0
    1.4458   -1.6513   -1.4591 H   0  0  0  0  0  0  0  0  0  0  0  0
   -4.5146    0.6843    1.4646 H   0  0  0  0  0  0  0  0  0  0  0  0
   -5.0150   -0.4328    0.1636 H   0  0  0  0  0  0  0  0  0  0  0  0
   -2.2025   -2.3211    0.6141 H   0  0  0  0  0  0  0  0  0  0  0  0
   -1.3856   -1.3244   -1.8894 H   0  0  0  0  0  0  0  0  0  0  0  0
   -2.5852    2.0542    0.9998 H   0  0  0  0  0  0  0  0  0  0  0  0
    3.5224   -0.3994   -1.9551 H   0  0  0  0  0  0  0  0  0  0  0  0
    1.4045    0.2635    1.7528 H   0  0  0  0  0  0  0  0  0  0  0  0
    2.4856   -2.3381    1.0971 H   0  0  0  0  0  0  0  0  0  0  0  0
   -6.2711    1.4567    0.2629 H   0  0  0  0  0  0  0  0  0  0  0  0
    4.8424    1.6484   -1.5454 H   0  0  0  0  0  0  0  0  0  0  0  0
    2.7139    2.2992    2.1302 H   0  0  0  0  0  0  0  0  0  0  0  0
    4.4416    3.0020    0.4948 H   0  0  0  0  0  0  0  0  0  0  0  0
  1  7  1  0  0  0  0
  1 25  1  0  0  0  0
  2  8  1  0  0  0  0
  2 26  1  0  0  0  0
  3  9  1  0  0  0  0
  3 27  1  0  0  0  0
  4 11  1  0  0  0  0
  4 30  1  0  0  0  0
  5 10  2  0  0  0  0
  6 12  1  0  0  0  0
  6 31  1  0  0  0  0
  7  8  1  0  0  0  0
  7  9  1  0  0  0  0
  7 19  1  0  0  0  0
  8 10  1  0  0  0  0
  8 20  1  0  0  0  0
  9 12  1  0  0  0  0
  9 21  1  0  0  0  0
 10 11  1  0  0  0  0
 11 13  1  0  0  0  0
 11 22  1  0  0  0  0
 12 23  1  0  0  0  0
 12 24  1  0  0  0  0
 13 14  2  0  0  0  0
 13 15  1  0  0  0  0
 14 16  1  0  0  0  0
 14 28  1  0  0  0  0
 15 17  2  0  0  0  0
 15 29  1  0  0  0  0
 16 18  2  0  0  0  0
 16 32  1  0  0  0  0
 17 18  1  0  0  0  0
 17 33  1  0  0  0  0
 18 34  1  0  0  0  0
M  END
> <PUBCHEM_COMPOUND_CID>
129644209

> <PUBCHEM_CONFORMER_RMSD>
1

> <PUBCHEM_CONFORMER_DIVERSEORDER>
1
131
3
73
30
64
93
97
57
50
32
92
26
106
62
61
91
66
119
75
110
108
74
38
23
58
9
27
59
72
34
118
17
55
67
56
6
123
96
36
104
84
111
24
138
124
133
90
31
10
37
129
98
105
8
82
39
28
2
45
112
4
53
49
86
65
126
54
35
102
25
29
69
15
100
71
43
14
81
7
79
11
117
78
68
136
70
51
115
5
121
60
87
12
125
103
48
116
114
134
109
18
101
94
40
77
63
132
42
85
76
33
83
47
99
52
107
19
137
21
16
88
127
46
113
95
22
128
44
89
135
13
41
80
122
20
120
130

> <PUBCHEM_MMFF94_PARTIAL_CHARGES>
28
1 -0.68
10 0.45
11 0.48
12 0.28
13 -0.14
14 -0.15
15 -0.15
16 -0.15
17 -0.15
18 -0.15
2 -0.68
25 0.4
26 0.4
27 0.4
28 0.15
29 0.15
3 -0.68
30 0.4
31 0.4
32 0.15
33 0.15
34 0.15
4 -0.68
5 -0.57
6 -0.68
7 0.28
8 0.34
9 0.28

> <PUBCHEM_EFFECTIVE_ROTOR_COUNT>
6

> <PUBCHEM_PHARMACOPHORE_FEATURES>
12
1 1 acceptor
1 1 donor
1 2 acceptor
1 2 donor
1 3 acceptor
1 3 donor
1 4 acceptor
1 4 donor
1 5 acceptor
1 6 acceptor
1 6 donor
6 13 14 15 16 17 18 rings

> <PUBCHEM_HEAVY_ATOM_COUNT>
18

> <PUBCHEM_ATOM_DEF_STEREO_COUNT>
3

> <PUBCHEM_ATOM_UDEF_STEREO_COUNT>
1

> <PUBCHEM_BOND_DEF_STEREO_COUNT>
0

> <PUBCHEM_BOND_UDEF_STEREO_COUNT>
0

> <PUBCHEM_ISOTOPIC_ATOM_COUNT>
0

> <PUBCHEM_COMPONENT_COUNT>
1

> <PUBCHEM_CACTVS_TAUTO_COUNT>
539

> <PUBCHEM_CONFORMER_ID>
07BA36B100000001

> <PUBCHEM_MMFF94_ENERGY>
38.2325

> <PUBCHEM_FEATURE_SELFOVERLAP>
60.929

> <PUBCHEM_SHAPE_FINGERPRINT>
10498660 4 18411981394516594849
10608611 8 18412265068595292562
11543360 7 17131828815437926599
11715629 250 18271518784094136332
122479 349 18336548338599175802
12730499 353 18340780294467211475
12892183 10 13984930844813708948
13764800 53 18189059857423420282
13878862 14 17973143060167746349
14123255 52 18340204188933854328
14178342 30 17530972422884342427
14251758 9 8718557159694754351
14251764 30 15214682812382819176
14252887 29 8934994867479652806
14528608 73 18201712951859039309
15210252 30 18410860983784302248
15342168 16 18186524331959534637
15422964 175 10953997292129849824
15775835 57 18344148106898476820
15885798 251 9367348141453221167
17834072 32 18264490748767167960
17868525 174 17612301953481195561
1798214 55 18410011065405634960
18186145 218 17917440868716252690
18981168 100 17970047968572192804
193927 3 9151174289776757101
20671657 1 18338795611522963170
20871998 22 9079122150389376074
21041028 32 17978782420766970086
212847 35 18410293592891796416
21524375 3 18410291398042279722
221357 26 17917156008999974604
231179 274 18272937145741520004
23227448 37 18269835470758122381
23402655 69 17703515479822198536
23557571 272 18199479924972793495
23559900 14 18188496770015571735
25 1 18341896307517217266
2637199 183 17988653968814661788
3060560 45 17418377965401820142
4028521 119 18201441410434802425
427121 178 17821452352343972962
449060 62 18412829066499693525
474 4 18260270767310028541
5104073 3 18261398806669533635
6333272 397 18260270750198614049
633830 44 18341890831180772692
6442390 28 18336272348090487130
7364860 26 18340768122683044110
7808743 9 18117845619101441236
84936 182 18340487772834271346
8988823 20 13695878072930330175
90316 7 16588852607347561110

> <PUBCHEM_SHAPE_MULTIPOLES>
335.22
8.88
2.37
1.08
6.87
0.48
-0.1
-6.34
-0.52
-0.62
0.45
-0.59
-0.02
0.39

> <PUBCHEM_SHAPE_SELFOVERLAP>
685.735

> <PUBCHEM_SHAPE_VOLUME>
191.9

> <PUBCHEM_COORDINATE_TYPE>
2
5
10