129640165
  -OEChem-05042113263D

 39 39  0     1  0  0  0  0  0999 V2000
   -1.9899   -1.7320   -0.0022 O   0  0  0  0  0  0  0  0  0  0  0  0
   -2.7521    0.0557   -2.0481 O   0  0  0  0  0  0  0  0  0  0  0  0
   -4.5919   -1.4685   -1.0746 O   0  0  0  0  0  0  0  0  0  0  0  0
   -1.2318    2.5768    0.8900 O   0  0  0  0  0  0  0  0  0  0  0  0
   -6.5116   -0.5482    1.0208 O   0  0  0  0  0  0  0  0  0  0  0  0
   -0.2667    0.6711   -1.6634 O   0  0  0  0  0  0  0  0  0  0  0  0
    1.3652    3.0049    0.7090 O   0  0  0  0  0  0  0  0  0  0  0  0
    5.4087    0.4545   -1.0547 O   0  0  0  0  0  0  0  0  0  0  0  0
    2.6025   -2.7534    1.1303 O   0  0  0  0  0  0  0  0  0  0  0  0
    4.9811   -2.1256   -0.1423 O   0  0  0  0  0  0  0  0  0  0  0  0
   -2.8180   -0.6018    0.2795 C   0  0  1  0  0  0  0  0  0  0  0  0
   -2.4823    0.5060   -0.7273 C   0  0  1  0  0  0  0  0  0  0  0  0
   -4.2911   -1.0474    0.2612 C   0  0  1  0  0  0  0  0  0  0  0  0
   -0.9931    0.8472   -0.6834 C   0  0  0  0  0  0  0  0  0  0  0  0
   -0.4485    1.4271    0.6126 C   0  0  1  0  0  0  0  0  0  0  0  0
   -5.2749    0.0544    0.6503 C   0  0  0  0  0  0  0  0  0  0  0  0
    1.0192    1.8319    0.5777 C   0  0  0  0  0  0  0  0  0  0  0  0
    2.0668    0.7854    0.3886 C   0  0  0  0  0  0  0  0  0  0  0  0
    1.8488   -0.5123    0.8511 C   0  0  0  0  0  0  0  0  0  0  0  0
    3.2640    1.1056   -0.2516 C   0  0  0  0  0  0  0  0  0  0  0  0
    4.2431    0.1281   -0.4295 C   0  0  0  0  0  0  0  0  0  0  0  0
    2.8277   -1.4900    0.6731 C   0  0  0  0  0  0  0  0  0  0  0  0
    4.0249   -1.1696    0.0329 C   0  0  0  0  0  0  0  0  0  0  0  0
   -2.5720   -0.2717    1.2945 H   0  0  0  0  0  0  0  0  0  0  0  0
   -3.0648    1.4151   -0.5551 H   0  0  0  0  0  0  0  0  0  0  0  0
   -4.4201   -1.9282    0.9014 H   0  0  0  0  0  0  0  0  0  0  0  0
   -0.6019    0.7313    1.4389 H   0  0  0  0  0  0  0  0  0  0  0  0
   -5.4671    0.7398   -0.1810 H   0  0  0  0  0  0  0  0  0  0  0  0
   -4.9105    0.6153    1.5164 H   0  0  0  0  0  0  0  0  0  0  0  0
   -2.1716   -2.4054    0.6752 H   0  0  0  0  0  0  0  0  0  0  0  0
   -2.3121   -0.8035   -2.1676 H   0  0  0  0  0  0  0  0  0  0  0  0
   -5.5204   -1.7579   -1.0852 H   0  0  0  0  0  0  0  0  0  0  0  0
    0.9296   -0.7809    1.3624 H   0  0  0  0  0  0  0  0  0  0  0  0
    3.4361    2.1150   -0.6178 H   0  0  0  0  0  0  0  0  0  0  0  0
   -1.0865    3.2200    0.1747 H   0  0  0  0  0  0  0  0  0  0  0  0
   -7.1162    0.1721    1.2681 H   0  0  0  0  0  0  0  0  0  0  0  0
    5.3830    1.3942   -1.3042 H   0  0  0  0  0  0  0  0  0  0  0  0
    1.7228   -2.7906    1.5433 H   0  0  0  0  0  0  0  0  0  0  0  0
    5.7374   -1.7226   -0.6030 H   0  0  0  0  0  0  0  0  0  0  0  0
  1 11  1  0  0  0  0
  1 30  1  0  0  0  0
  2 12  1  0  0  0  0
  2 31  1  0  0  0  0
  3 13  1  0  0  0  0
  3 32  1  0  0  0  0
  4 15  1  0  0  0  0
  4 35  1  0  0  0  0
  5 16  1  0  0  0  0
  5 36  1  0  0  0  0
  6 14  2  0  0  0  0
  7 17  2  0  0  0  0
  8 21  1  0  0  0  0
  8 37  1  0  0  0  0
  9 22  1  0  0  0  0
  9 38  1  0  0  0  0
 10 23  1  0  0  0  0
 10 39  1  0  0  0  0
 11 12  1  0  0  0  0
 11 13  1  0  0  0  0
 11 24  1  0  0  0  0
 12 14  1  0  0  0  0
 12 25  1  0  0  0  0
 13 16  1  0  0  0  0
 13 26  1  0  0  0  0
 14 15  1  0  0  0  0
 15 17  1  0  0  0  0
 15 27  1  0  0  0  0
 16 28  1  0  0  0  0
 16 29  1  0  0  0  0
 17 18  1  0  0  0  0
 18 19  2  0  0  0  0
 18 20  1  0  0  0  0
 19 22  1  0  0  0  0
 19 33  1  0  0  0  0
 20 21  2  0  0  0  0
 20 34  1  0  0  0  0
 21 23  1  0  0  0  0
 22 23  2  0  0  0  0
M  END
> <PUBCHEM_COMPOUND_CID>
129640165

> <PUBCHEM_CONFORMER_RMSD>
1.2

> <PUBCHEM_CONFORMER_DIVERSEORDER>
1
79
5
7
58
30
29
61
73
28
85
11
10
26
56
33
4
37
69
95
88
22
9
25
13
6
23
68
74
72
34
14
89
78
102
81
62
19
31
99
12
32
44
21
83
42
94
84
27
98
2
17
36
71
40
86
87
82
18
60
64
16
70
45
15
77
57
91
66
97
35
54
67
24
101
59
3
76
38
93
41
63
55
39
51
75
53
100
50
92
43
65
80
90
48
8
20
46
47
49
52
103
96

> <PUBCHEM_MMFF94_PARTIAL_CHARGES>
33
1 -0.68
10 -0.53
11 0.28
12 0.34
13 0.28
14 0.45
15 0.4
16 0.28
17 0.42
18 0.09
19 -0.15
2 -0.68
20 -0.15
21 0.08
22 0.08
23 0.08
3 -0.68
30 0.4
31 0.4
32 0.4
33 0.15
34 0.15
35 0.4
36 0.4
37 0.45
38 0.45
39 0.45
4 -0.68
5 -0.68
6 -0.57
7 -0.57
8 -0.53
9 -0.53

> <PUBCHEM_EFFECTIVE_ROTOR_COUNT>
7

> <PUBCHEM_PHARMACOPHORE_FEATURES>
17
1 1 acceptor
1 1 donor
1 10 donor
1 15 anion
1 2 acceptor
1 2 donor
1 3 acceptor
1 3 donor
1 4 acceptor
1 4 donor
1 5 acceptor
1 5 donor
1 6 acceptor
1 7 acceptor
1 8 donor
1 9 donor
6 18 19 20 21 22 23 rings

> <PUBCHEM_HEAVY_ATOM_COUNT>
23

> <PUBCHEM_ATOM_DEF_STEREO_COUNT>
3

> <PUBCHEM_ATOM_UDEF_STEREO_COUNT>
1

> <PUBCHEM_BOND_DEF_STEREO_COUNT>
0

> <PUBCHEM_BOND_UDEF_STEREO_COUNT>
0

> <PUBCHEM_ISOTOPIC_ATOM_COUNT>
0

> <PUBCHEM_COMPONENT_COUNT>
1

> <PUBCHEM_CACTVS_TAUTO_COUNT>
1001

> <PUBCHEM_CONFORMER_ID>
07BA26E500000001

> <PUBCHEM_MMFF94_ENERGY>
45.9359

> <PUBCHEM_FEATURE_SELFOVERLAP>
86.354

> <PUBCHEM_SHAPE_FINGERPRINT>
11140007 195 16415487051250577576
12107183 9 18199759042418699569
12553582 1 18271515446915044860
12596602 18 17203326775084523371
12633257 1 18201720673862175239
12788726 201 18059303062756424145
128620 24 14779259821976696933
13103583 49 18059586801718618883
13402501 40 18040723592711746811
13533116 47 18055064617994799959
14251764 30 17988652861182825942
14617045 38 18259992590852552291
15188451 53 16056299727140245255
15375462 189 18411975871072100882
15527383 91 17775286083966021088
15537594 2 18412826906004803198
17349148 13 16773510083996729397
17492 89 18122061997207353658
1813 80 17989212551034503524
19784866 140 18341055142567489926
200 152 18408321064783896360
20291156 8 18342452621545875128
20832881 197 18411418397697952105
20871999 31 17095516275826243693
21033650 10 14346633761919818486
21267235 1 18339086995384793058
212916 134 15769780152479348615
21521721 280 18262525930663660432
21713013 43 17968089777260253582
2215653 11 18334283285059838335
22950370 63 18341897393764128527
235170 7 17095231506325046886
23557571 272 16950558882938793229
23559900 14 18262794206609764973
23598288 3 18129092329793459340
2838139 119 10663825135583730419
2871803 45 18186236221464099010
3004659 81 18187082811279378730
314173 41 18411140259625934840
328317 168 10665228155085257753
3323516 105 18334571373774449224
345986 75 18270954653404530691
351380 3 18273214200859357623
46194498 28 17240768427412724940
465052 167 18201163229977426807
5104073 3 18058159537010102554
7970288 3 18273208690548874678
8509985 295 11959732651178165574

> <PUBCHEM_SHAPE_MULTIPOLES>
414.64
11.62
2.45
1.22
7.43
0.3
0.41
-5.71
0.06
-1.65
-0.8
0.58
0.07
-0.44

> <PUBCHEM_SHAPE_SELFOVERLAP>
864.58

> <PUBCHEM_SHAPE_VOLUME>
232.9

> <PUBCHEM_COORDINATE_TYPE>
2
5
10