129731666
  -OEChem-05042113263D

 45 46  0     1  0  0  0  0  0999 V2000
    1.5101    0.6080    0.2389 O   0  0  0  0  0  0  0  0  0  0  0  0
   -1.0713    0.6511    0.0996 O   0  0  0  0  0  0  0  0  0  0  0  0
    1.4342   -0.7862   -1.6488 O   0  0  0  0  0  0  0  0  0  0  0  0
    0.1302   -2.7742   -0.0550 O   0  0  0  0  0  0  0  0  0  0  0  0
    3.0179   -2.6100   -0.3696 O   0  0  0  0  0  0  0  0  0  0  0  0
   -2.4595   -2.7372   -0.2921 O   0  0  0  0  0  0  0  0  0  0  0  0
    4.8182   -0.4884    0.9821 O   0  0  0  0  0  0  0  0  0  0  0  0
   -4.7951   -1.1414    0.3447 O   0  0  0  0  0  0  0  0  0  0  0  0
   -3.5797    1.0591    1.4784 O   0  0  0  0  0  0  0  0  0  0  0  0
    2.4931    3.2373    0.1741 O   0  0  0  0  0  0  0  0  0  0  0  0
   -0.9484    3.4176   -0.9304 O   0  0  0  0  0  0  0  0  0  0  0  0
    1.4183   -0.7533   -0.2207 C   0  0  2  0  0  0  0  0  0  0  0  0
    0.1391   -1.3948    0.2940 C   0  0  1  0  0  0  0  0  0  0  0  0
   -1.1018   -0.7259   -0.2877 C   0  0  1  0  0  0  0  0  0  0  0  0
    2.6784   -1.4226    0.3184 C   0  0  2  0  0  0  0  0  0  0  0  0
   -2.3888   -1.4024    0.2039 C   0  0  1  0  0  0  0  0  0  0  0  0
    3.7025   -0.3243    0.1267 C   0  0  1  0  0  0  0  0  0  0  0  0
    2.8932    0.9073    0.5175 C   0  0  1  0  0  0  0  0  0  0  0  0
   -3.6181   -0.6207   -0.2663 C   0  0  2  0  0  0  0  0  0  0  0  0
   -3.4915    0.8677    0.0646 C   0  0  2  0  0  0  0  0  0  0  0  0
   -2.1541    1.4108   -0.4541 C   0  0  1  0  0  0  0  0  0  0  0  0
    3.3043    2.1534   -0.2476 C   0  0  0  0  0  0  0  0  0  0  0  0
   -1.9311    2.8689   -0.0705 C   0  0  0  0  0  0  0  0  0  0  0  0
    0.1192   -1.3112    1.3888 H   0  0  0  0  0  0  0  0  0  0  0  0
   -1.0675   -0.7970   -1.3837 H   0  0  0  0  0  0  0  0  0  0  0  0
    2.5769   -1.6633    1.3845 H   0  0  0  0  0  0  0  0  0  0  0  0
   -2.3972   -1.4694    1.2983 H   0  0  0  0  0  0  0  0  0  0  0  0
    4.0738   -0.2843   -0.9029 H   0  0  0  0  0  0  0  0  0  0  0  0
    2.9556    1.1097    1.5940 H   0  0  0  0  0  0  0  0  0  0  0  0
   -3.7375   -0.7515   -1.3492 H   0  0  0  0  0  0  0  0  0  0  0  0
   -4.3302    1.4186   -0.3751 H   0  0  0  0  0  0  0  0  0  0  0  0
   -2.1117    1.3150   -1.5473 H   0  0  0  0  0  0  0  0  0  0  0  0
    4.3536    2.4022   -0.0614 H   0  0  0  0  0  0  0  0  0  0  0  0
    3.1470    2.0213   -1.3231 H   0  0  0  0  0  0  0  0  0  0  0  0
    2.3332   -0.9743   -1.9622 H   0  0  0  0  0  0  0  0  0  0  0  0
   -1.5778    2.9669    0.9611 H   0  0  0  0  0  0  0  0  0  0  0  0
   -2.8471    3.4536   -0.2012 H   0  0  0  0  0  0  0  0  0  0  0  0
   -0.5659   -3.2093    0.4654 H   0  0  0  0  0  0  0  0  0  0  0  0
    3.8878   -2.8970   -0.0433 H   0  0  0  0  0  0  0  0  0  0  0  0
   -2.4430   -2.6975   -1.2635 H   0  0  0  0  0  0  0  0  0  0  0  0
    4.4979   -0.5464    1.8982 H   0  0  0  0  0  0  0  0  0  0  0  0
   -5.5495   -0.6218    0.0182 H   0  0  0  0  0  0  0  0  0  0  0  0
   -2.7692    0.7056    1.8822 H   0  0  0  0  0  0  0  0  0  0  0  0
    2.7740    4.0190   -0.3315 H   0  0  0  0  0  0  0  0  0  0  0  0
   -0.8231    4.3456   -0.6683 H   0  0  0  0  0  0  0  0  0  0  0  0
  1 12  1  0  0  0  0
  1 18  1  0  0  0  0
  2 14  1  0  0  0  0
  2 21  1  0  0  0  0
  3 12  1  0  0  0  0
  3 35  1  0  0  0  0
  4 13  1  0  0  0  0
  4 38  1  0  0  0  0
  5 15  1  0  0  0  0
  5 39  1  0  0  0  0
  6 16  1  0  0  0  0
  6 40  1  0  0  0  0
  7 17  1  0  0  0  0
  7 41  1  0  0  0  0
  8 19  1  0  0  0  0
  8 42  1  0  0  0  0
  9 20  1  0  0  0  0
  9 43  1  0  0  0  0
 10 22  1  0  0  0  0
 10 44  1  0  0  0  0
 11 23  1  0  0  0  0
 11 45  1  0  0  0  0
 12 13  1  0  0  0  0
 12 15  1  0  0  0  0
 13 14  1  0  0  0  0
 13 24  1  0  0  0  0
 14 16  1  0  0  0  0
 14 25  1  0  0  0  0
 15 17  1  0  0  0  0
 15 26  1  0  0  0  0
 16 19  1  0  0  0  0
 16 27  1  0  0  0  0
 17 18  1  0  0  0  0
 17 28  1  0  0  0  0
 18 22  1  0  0  0  0
 18 29  1  0  0  0  0
 19 20  1  0  0  0  0
 19 30  1  0  0  0  0
 20 21  1  0  0  0  0
 20 31  1  0  0  0  0
 21 23  1  0  0  0  0
 21 32  1  0  0  0  0
 22 33  1  0  0  0  0
 22 34  1  0  0  0  0
 23 36  1  0  0  0  0
 23 37  1  0  0  0  0
M  END
> <PUBCHEM_COMPOUND_CID>
129731666

> <PUBCHEM_CONFORMER_RMSD>
0.8

> <PUBCHEM_CONFORMER_DIVERSEORDER>
1
138
43
130
93
72
101
100
80
109
30
74
134
42
66
60
108
78
3
106
102
113
68
73
40
35
103
13
19
126
71
84
121
117
59
124
7
116
27
77
90
118
114
122
62
86
136
6
49
53
112
17
51
36
56
123
9
23
89
120
16
92
98
75
87
5
115
48
129
135
82
37
34
105
96
22
29
18
125
21
104
24
76
69
33
39
64
32
94
137
20
85
81
45
91
10
128
67
52
70
127
44
8
119
12
26
4
38
47
57
133
95
132
31
131
107
50
11
79
14
110
99
15
63
111
46
97
41
2
83
88
61
65
54
55
28
25
58

> <PUBCHEM_MMFF94_PARTIAL_CHARGES>
32
1 -0.56
10 -0.68
11 -0.68
12 0.56
13 0.28
14 0.28
15 0.28
16 0.28
17 0.28
18 0.28
19 0.28
2 -0.56
20 0.28
21 0.28
22 0.28
23 0.28
3 -0.68
35 0.4
38 0.4
39 0.4
4 -0.68
40 0.4
41 0.4
42 0.4
43 0.4
44 0.4
45 0.4
5 -0.68
6 -0.68
7 -0.68
8 -0.68
9 -0.68

> <PUBCHEM_EFFECTIVE_ROTOR_COUNT>
6.2

> <PUBCHEM_PHARMACOPHORE_FEATURES>
22
1 1 acceptor
1 10 acceptor
1 10 donor
1 11 acceptor
1 11 donor
1 2 acceptor
1 3 acceptor
1 3 donor
1 4 acceptor
1 4 donor
1 5 acceptor
1 5 donor
1 6 acceptor
1 6 donor
1 7 acceptor
1 7 donor
1 8 acceptor
1 8 donor
1 9 acceptor
1 9 donor
5 1 12 15 17 18 rings
6 2 14 16 19 20 21 rings

> <PUBCHEM_HEAVY_ATOM_COUNT>
23

> <PUBCHEM_ATOM_DEF_STEREO_COUNT>
8

> <PUBCHEM_ATOM_UDEF_STEREO_COUNT>
2

> <PUBCHEM_BOND_DEF_STEREO_COUNT>
0

> <PUBCHEM_BOND_UDEF_STEREO_COUNT>
0

> <PUBCHEM_ISOTOPIC_ATOM_COUNT>
0

> <PUBCHEM_COMPONENT_COUNT>
1

> <PUBCHEM_CACTVS_TAUTO_COUNT>
1

> <PUBCHEM_CONFORMER_ID>
07BB8C5200000001

> <PUBCHEM_MMFF94_ENERGY>
72.5944

> <PUBCHEM_FEATURE_SELFOVERLAP>
111.79

> <PUBCHEM_SHAPE_FINGERPRINT>
10366900 7 18114190739165309290
10498660 4 18407758123394250469
10608611 8 18339075986718598382
10616163 171 18340770454448904526
10967382 1 18265894833605006581
1100329 8 16537355047615351390
11578080 2 17241866770867542268
12403259 226 18337389327291642462
12403260 363 18410282597395515578
12403814 3 18409731738392367177
12507557 5 18409438181282392568
12633257 1 18411136909551658616
13140716 1 18336552702259497099
13224815 77 18410578404889161045
13583140 156 17313377877577297217
14223421 5 18410009910006373132
14466204 15 18337097970333922362
14787075 74 17536031413164314035
14790565 3 17615697670664156189
15196674 1 18410009966025791569
15375462 6 18409729603418925100
15442244 35 18265892463126080554
16945 1 18265895765744895599
17492 89 18410009901454225795
17802600 8 18410848858869039928
18186145 218 18129387007636612094
19930381 70 18337387248754694785
20510252 161 18341328890718745571
21267235 1 18410299128740942899
21501502 16 18339641251902154234
21524375 3 18272085015466135110
21618674 68 18341896311638085615
21652331 79 18337672017728507393
23227448 37 18412541003201361181
2334 1 18266178511984206197
23402539 116 18342444968209819415
23419403 2 16234210839931036691
23557571 272 18272662246011521735
23559900 14 18341326691521760702
2748010 2 18410577331215973871
335352 9 18050848823260440215
350125 39 18410575084964097128
4409770 3 17032457961360811236
44154327 71 18265054823891043364
474 4 18411982459557318402
5104073 3 18410011065336680897
5283173 99 18115007616776968605
58051976 378 18413665812081002462
7097593 13 18189322486231790482
7364860 26 18411984676319644686
7832392 63 18050564045548843562
9709674 26 18411703175025043158
9925002 15 16406176653006010743

> <PUBCHEM_SHAPE_MULTIPOLES>
408.77
7.86
3.51
0.88
0.33
1.77
-0.04
-0.34
1.56
0.12
-0.49
-0.01
0.08
0.06

> <PUBCHEM_SHAPE_SELFOVERLAP>
847.747

> <PUBCHEM_SHAPE_VOLUME>
230.6

> <PUBCHEM_COORDINATE_TYPE>
2
5
10