129772417
  -OEChem-05042113263D

 45 45  0     1  0  0  0  0  0999 V2000
    1.7977    0.5820    0.3478 O   0  0  0  0  0  0  0  0  0  0  0  0
    0.0691   -1.3775   -2.2357 O   0  0  0  0  0  0  0  0  0  0  0  0
    2.7406   -2.0174   -1.8619 O   0  0  0  0  0  0  0  0  0  0  0  0
    1.7557   -2.0610    1.6505 O   0  0  0  0  0  0  0  0  0  0  0  0
    3.9870    0.0256   -0.3622 O   0  0  0  0  0  0  0  0  0  0  0  0
    3.8060    1.5416    1.9556 O   0  0  0  0  0  0  0  0  0  0  0  0
   -2.2005    0.6879   -0.4303 O   0  0  0  0  0  0  0  0  0  0  0  0
   -0.7221    1.1188    1.2927 O   0  0  0  0  0  0  0  0  0  0  0  0
   -3.0917    0.4287    0.6944 O   0  0  0  0  0  0  0  0  0  0  0  0
   -4.2617   -0.7030   -0.9463 O   0  0  0  0  0  0  0  0  0  0  0  0
    1.1573    0.3309   -0.9070 C   0  0  1  0  0  0  0  0  0  0  0  0
    0.6803   -1.1230   -0.9764 C   0  0  2  0  0  0  0  0  0  0  0  0
    1.8472   -2.0904   -0.7523 C   0  0  2  0  0  0  0  0  0  0  0  0
    2.5893   -1.7301    0.5407 C   0  0  1  0  0  0  0  0  0  0  0  0
    2.9552   -0.2289    0.5958 C   0  0  2  0  0  0  0  0  0  0  0  0
   -0.0064    1.3112   -1.0253 C   0  0  2  0  0  0  0  0  0  0  0  0
    0.4960    2.7618   -0.9866 C   0  0  0  0  0  0  0  0  0  0  0  0
    3.4821    0.1655    1.9790 C   0  0  0  0  0  0  0  0  0  0  0  0
   -0.9861    1.0270    0.1008 C   0  0  0  0  0  0  0  0  0  0  0  0
   -0.6340    3.7758   -1.1121 C   0  0  0  0  0  0  0  0  0  0  0  0
   -4.1255   -0.3259    0.2094 C   0  0  0  0  0  0  0  0  0  0  0  0
   -5.0817   -0.6230    1.3408 C   0  0  0  0  0  0  0  0  0  0  0  0
   -6.2538   -1.4766    0.8886 C   0  0  0  0  0  0  0  0  0  0  0  0
    1.8604    0.5398   -1.7241 H   0  0  0  0  0  0  0  0  0  0  0  0
   -0.0652   -1.3221   -0.1978 H   0  0  0  0  0  0  0  0  0  0  0  0
    1.4615   -3.1160   -0.7154 H   0  0  0  0  0  0  0  0  0  0  0  0
    3.5080   -2.3252    0.6160 H   0  0  0  0  0  0  0  0  0  0  0  0
   -0.5133    1.1542   -1.9864 H   0  0  0  0  0  0  0  0  0  0  0  0
    1.2087    2.9237   -1.8043 H   0  0  0  0  0  0  0  0  0  0  0  0
    1.0300    2.9661   -0.0507 H   0  0  0  0  0  0  0  0  0  0  0  0
    4.3882   -0.3950    2.2305 H   0  0  0  0  0  0  0  0  0  0  0  0
    2.7270    0.0183    2.7574 H   0  0  0  0  0  0  0  0  0  0  0  0
   -0.2087   -2.3092   -2.2442 H   0  0  0  0  0  0  0  0  0  0  0  0
    3.4649   -2.6445   -1.6956 H   0  0  0  0  0  0  0  0  0  0  0  0
    1.5759   -3.0156    1.6079 H   0  0  0  0  0  0  0  0  0  0  0  0
    4.4800    0.8121   -0.0738 H   0  0  0  0  0  0  0  0  0  0  0  0
   -1.3194    3.7230   -0.2608 H   0  0  0  0  0  0  0  0  0  0  0  0
   -1.2081    3.6110   -2.0295 H   0  0  0  0  0  0  0  0  0  0  0  0
   -0.2250    4.7907   -1.1471 H   0  0  0  0  0  0  0  0  0  0  0  0
    4.1431    1.7732    2.8378 H   0  0  0  0  0  0  0  0  0  0  0  0
   -4.5335   -1.1498    2.1289 H   0  0  0  0  0  0  0  0  0  0  0  0
   -5.4560    0.3269    1.7368 H   0  0  0  0  0  0  0  0  0  0  0  0
   -5.9101   -2.4368    0.4897 H   0  0  0  0  0  0  0  0  0  0  0  0
   -6.9266   -1.6759    1.7284 H   0  0  0  0  0  0  0  0  0  0  0  0
   -6.8267   -0.9734    0.1027 H   0  0  0  0  0  0  0  0  0  0  0  0
  1 11  1  0  0  0  0
  1 15  1  0  0  0  0
  2 12  1  0  0  0  0
  2 33  1  0  0  0  0
  3 13  1  0  0  0  0
  3 34  1  0  0  0  0
  4 14  1  0  0  0  0
  4 35  1  0  0  0  0
  5 15  1  0  0  0  0
  5 36  1  0  0  0  0
  6 18  1  0  0  0  0
  6 40  1  0  0  0  0
  7  9  1  0  0  0  0
  7 19  1  0  0  0  0
  8 19  2  0  0  0  0
  9 21  1  0  0  0  0
 10 21  2  0  0  0  0
 11 12  1  0  0  0  0
 11 16  1  0  0  0  0
 11 24  1  0  0  0  0
 12 13  1  0  0  0  0
 12 25  1  0  0  0  0
 13 14  1  0  0  0  0
 13 26  1  0  0  0  0
 14 15  1  0  0  0  0
 14 27  1  0  0  0  0
 15 18  1  0  0  0  0
 16 17  1  0  0  0  0
 16 19  1  0  0  0  0
 16 28  1  0  0  0  0
 17 20  1  0  0  0  0
 17 29  1  0  0  0  0
 17 30  1  0  0  0  0
 18 31  1  0  0  0  0
 18 32  1  0  0  0  0
 20 37  1  0  0  0  0
 20 38  1  0  0  0  0
 20 39  1  0  0  0  0
 21 22  1  0  0  0  0
 22 23  1  0  0  0  0
 22 41  1  0  0  0  0
 22 42  1  0  0  0  0
 23 43  1  0  0  0  0
 23 44  1  0  0  0  0
 23 45  1  0  0  0  0
M  END
> <PUBCHEM_COMPOUND_CID>
129772417

> <PUBCHEM_CONFORMER_RMSD>
1

> <PUBCHEM_CONFORMER_DIVERSEORDER>
1
68
43
66
21
117
24
110
108
6
91
56
48
85
101
60
88
10
18
67
86
42
119
114
40
27
125
97
20
54
38
106
37
111
44
83
50
4
100
76
13
64
77
11
28
25
84
72
65
75
98
29
47
79
2
73
123
87
35
107
120
39
96
105
36
115
5
104
113
8
17
22
49
62
102
69
74
53
71
55
94
33
81
46
16
112
70
32
116
118
26
99
19
12
89
15
103
3
45
30
93
31
57
92
78
122
59
61
58
63
23
7
41
82
9
51
52
80
109
14
95
121
34
124
90

> <PUBCHEM_MMFF94_PARTIAL_CHARGES>
25
1 -0.56
10 -0.57
11 0.28
12 0.28
13 0.28
14 0.28
15 0.56
16 0.06
18 0.28
19 0.66
2 -0.68
21 0.66
22 0.06
3 -0.68
33 0.4
34 0.4
35 0.4
36 0.4
4 -0.68
40 0.4
5 -0.68
6 -0.68
7 -0.15
8 -0.57
9 -0.15

> <PUBCHEM_EFFECTIVE_ROTOR_COUNT>
9.2

> <PUBCHEM_PHARMACOPHORE_FEATURES>
16
1 1 acceptor
1 10 acceptor
1 2 acceptor
1 2 donor
1 20 hydrophobe
1 23 hydrophobe
1 3 acceptor
1 3 donor
1 4 acceptor
1 4 donor
1 5 acceptor
1 5 donor
1 6 acceptor
1 6 donor
1 8 acceptor
6 1 11 12 13 14 15 rings

> <PUBCHEM_HEAVY_ATOM_COUNT>
23

> <PUBCHEM_ATOM_DEF_STEREO_COUNT>
4

> <PUBCHEM_ATOM_UDEF_STEREO_COUNT>
2

> <PUBCHEM_BOND_DEF_STEREO_COUNT>
0

> <PUBCHEM_BOND_UDEF_STEREO_COUNT>
0

> <PUBCHEM_ISOTOPIC_ATOM_COUNT>
0

> <PUBCHEM_COMPONENT_COUNT>
1

> <PUBCHEM_CACTVS_TAUTO_COUNT>
1

> <PUBCHEM_CONFORMER_ID>
07BC2B8100000001

> <PUBCHEM_MMFF94_ENERGY>
43.7927

> <PUBCHEM_FEATURE_SELFOVERLAP>
81.277

> <PUBCHEM_SHAPE_FINGERPRINT>
10165383 225 17845937428976794680
10610426 29 16515672330159455292
107951 10 12733287103168402549
11796584 16 16805601465262317843
12363563 72 18040723549961942305
12553582 1 18335702771339527791
12596602 18 16917075503458678675
12633257 1 18115303518110839659
12778500 126 16557928735606046691
12892183 10 17988927747663633033
12895836 83 12606828332546960104
12895837 130 13755509081240901520
13083527 12 18114177557705404220
13464513 79 18410019848576676134
14223421 5 18198895916699780616
14251740 57 18201734954807996943
14251751 18 17095521851121432347
14252887 29 18413113844369545419
14341114 328 16630805538836747547
14787075 74 17894919554864680092
14863182 85 18059870496702895847
15342816 4 18113904823081638067
15422964 175 18334575690163795255
16945 1 18264465365968793580
17868525 174 10732556672920193527
1813 80 18335711529015493645
20369508 70 17895482530862133873
20626108 58 16009027306582158427
20645477 70 18261966266401885895
21069387 34 14996560625674368248
21503847 285 13901901211268047459
21756936 100 15625357161055640480
231179 274 10303818666066459419
23557571 272 18262796238192593357
23559900 14 17899408697605758630
251288 83 18412261722668206010
2637199 183 13039188134205952619
2748010 2 17912065167584992188
314173 41 18188502362352836219
394222 165 17980218687769410441
427121 178 17203612617958629519
621550 5 17556604061840988646
6442390 28 17489015089306956198
7808743 9 11598846576300818139
81228 2 17899420792097209117
9841814 1 18041009470187892089

> <PUBCHEM_SHAPE_MULTIPOLES>
414.64
9.09
2.92
1.85
15.34
2.62
-0.07
-5.42
-4.32
-0.54
0.86
-1.41
-0.46
1.03

> <PUBCHEM_SHAPE_SELFOVERLAP>
835.218

> <PUBCHEM_SHAPE_VOLUME>
239.3

> <PUBCHEM_COORDINATE_TYPE>
2
5
10