129856243
  -OEChem-05042113263D

 40 39  0     1  0  0  0  0  0999 V2000
    2.4086    0.1924    1.6268 O   0  0  0  0  0  0  0  0  0  0  0  0
   -1.7248    0.3408   -0.5477 O   0  0  0  0  0  0  0  0  0  0  0  0
    2.6527    2.2767   -0.3397 O   0  0  0  0  0  0  0  0  0  0  0  0
    4.4473   -0.6006   -1.3226 O   0  0  0  0  0  0  0  0  0  0  0  0
    6.1514   -1.4608    0.7030 O   0  0  0  0  0  0  0  0  0  0  0  0
    0.0369    2.2746   -0.0389 O   0  0  0  0  0  0  0  0  0  0  0  0
   -2.3462   -1.7638   -1.2519 O   0  0  0  0  0  0  0  0  0  0  0  0
   -4.9889   -1.1984   -0.9553 N   0  0  2  0  0  0  0  0  0  0  0  0
    2.6768   -0.0485    0.2486 C   0  0  1  0  0  0  0  0  0  0  0  0
    2.0222    1.0339   -0.6236 C   0  0  1  0  0  0  0  0  0  0  0  0
    4.1891   -0.2462    0.0355 C   0  0  1  0  0  0  0  0  0  0  0  0
   -4.2150    0.2386    0.9527 C   0  0  0  0  0  0  0  0  0  0  0  0
   -4.0443   -0.1641   -0.5307 C   0  0  1  0  0  0  0  0  0  0  0  0
    0.5168    1.2103   -0.4324 C   0  0  0  0  0  0  0  0  0  0  0  0
    4.7490   -1.3553    0.9267 C   0  0  0  0  0  0  0  0  0  0  0  0
   -3.9127   -0.8976    1.9367 C   0  0  0  0  0  0  0  0  0  0  0  0
   -5.6186    0.7931    1.2192 C   0  0  0  0  0  0  0  0  0  0  0  0
   -0.3664    0.0276   -0.7809 C   0  0  0  0  0  0  0  0  0  0  0  0
   -2.6338   -0.6526   -0.8257 C   0  0  0  0  0  0  0  0  0  0  0  0
    2.1935   -1.0026    0.0025 H   0  0  0  0  0  0  0  0  0  0  0  0
    2.1903    0.8248   -1.6854 H   0  0  0  0  0  0  0  0  0  0  0  0
    4.7289    0.6852    0.2436 H   0  0  0  0  0  0  0  0  0  0  0  0
   -3.5050    1.0480    1.1691 H   0  0  0  0  0  0  0  0  0  0  0  0
   -4.2130    0.7136   -1.1678 H   0  0  0  0  0  0  0  0  0  0  0  0
    4.5872   -1.1424    1.9874 H   0  0  0  0  0  0  0  0  0  0  0  0
    4.2998   -2.3219    0.6757 H   0  0  0  0  0  0  0  0  0  0  0  0
   -4.5914   -1.7451    1.7950 H   0  0  0  0  0  0  0  0  0  0  0  0
   -4.0239   -0.5507    2.9699 H   0  0  0  0  0  0  0  0  0  0  0  0
   -2.8863   -1.2601    1.8230 H   0  0  0  0  0  0  0  0  0  0  0  0
   -6.3883    0.0177    1.1488 H   0  0  0  0  0  0  0  0  0  0  0  0
   -5.8653    1.5905    0.5104 H   0  0  0  0  0  0  0  0  0  0  0  0
   -5.6747    1.2185    2.2274 H   0  0  0  0  0  0  0  0  0  0  0  0
   -0.2151   -0.2105   -1.8390 H   0  0  0  0  0  0  0  0  0  0  0  0
   -0.0810   -0.8200   -0.1509 H   0  0  0  0  0  0  0  0  0  0  0  0
    1.4453    0.1686    1.7538 H   0  0  0  0  0  0  0  0  0  0  0  0
   -4.8639   -1.3868   -1.9496 H   1  0  0  0  0  0  0  0  0  0  0  0
   -5.9441   -0.8585   -0.8557 H   0  0  0  0  0  0  0  0  0  0  0  0
    2.5663    2.4421    0.6149 H   0  0  0  0  0  0  0  0  0  0  0  0
    5.4080   -0.7203   -1.4156 H   0  0  0  0  0  0  0  0  0  0  0  0
    6.4782   -2.1749    1.2764 H   0  0  0  0  0  0  0  0  0  0  0  0
  1  9  1  0  0  0  0
  1 35  1  0  0  0  0
  2 18  1  0  0  0  0
  2 19  1  0  0  0  0
  3 10  1  0  0  0  0
  3 38  1  0  0  0  0
  4 11  1  0  0  0  0
  4 39  1  0  0  0  0
  5 15  1  0  0  0  0
  5 40  1  0  0  0  0
  6 14  2  0  0  0  0
  7 19  2  0  0  0  0
  8 13  1  0  0  0  0
  8 36  1  0  0  0  0
  8 37  1  0  0  0  0
  9 10  1  0  0  0  0
  9 11  1  0  0  0  0
  9 20  1  0  0  0  0
 10 14  1  0  0  0  0
 10 21  1  0  0  0  0
 11 15  1  0  0  0  0
 11 22  1  0  0  0  0
 12 13  1  0  0  0  0
 12 16  1  0  0  0  0
 12 17  1  0  0  0  0
 12 23  1  0  0  0  0
 13 19  1  0  0  0  0
 13 24  1  0  0  0  0
 14 18  1  0  0  0  0
 15 25  1  0  0  0  0
 15 26  1  0  0  0  0
 16 27  1  0  0  0  0
 16 28  1  0  0  0  0
 16 29  1  0  0  0  0
 17 30  1  0  0  0  0
 17 31  1  0  0  0  0
 17 32  1  0  0  0  0
 18 33  1  0  0  0  0
 18 34  1  0  0  0  0
M  ISO  1  36   2
M  END
> <PUBCHEM_COMPOUND_CID>
129856243

> <PUBCHEM_CONFORMER_RMSD>
1

> <PUBCHEM_CONFORMER_DIVERSEORDER>
1
27
92
5
52
21
67
45
96
74
99
8
81
70
89
34
44
71
101
20
55
12
11
37
83
80
100
60
62
59
66
19
65
53
63
77
78
4
73
61
24
2
18
64
88
23
103
48
6
10
58
93
49
13
42
38
57
84
85
22
75
17
97
43
86
41
94
3
29
32
98
68
39
76
14
90
28
87
47
54
69
9
51
40
25
102
91
82
79
35
36
16
50
7
15
56
72
31
46
95
26
33
30
104

> <PUBCHEM_MMFF94_PARTIAL_CHARGES>
22
1 -0.68
10 0.34
11 0.28
13 0.33
14 0.45
15 0.28
18 0.34
19 0.66
2 -0.43
3 -0.68
35 0.4
36 0.36
37 0.36
38 0.4
39 0.4
4 -0.68
40 0.4
5 -0.68
6 -0.57
7 -0.57
8 -0.99
9 0.28

> <PUBCHEM_EFFECTIVE_ROTOR_COUNT>
9

> <PUBCHEM_PHARMACOPHORE_FEATURES>
13
1 1 acceptor
1 1 donor
1 3 acceptor
1 3 donor
1 4 acceptor
1 4 donor
1 5 acceptor
1 5 donor
1 6 acceptor
1 7 acceptor
1 8 cation
1 8 donor
3 12 16 17 hydrophobe

> <PUBCHEM_HEAVY_ATOM_COUNT>
19

> <PUBCHEM_ATOM_DEF_STEREO_COUNT>
4

> <PUBCHEM_ATOM_UDEF_STEREO_COUNT>
0

> <PUBCHEM_BOND_DEF_STEREO_COUNT>
0

> <PUBCHEM_BOND_UDEF_STEREO_COUNT>
0

> <PUBCHEM_ISOTOPIC_ATOM_COUNT>
1

> <PUBCHEM_COMPONENT_COUNT>
1

> <PUBCHEM_CACTVS_TAUTO_COUNT>
10

> <PUBCHEM_CONFORMER_ID>
07BD72F300000001

> <PUBCHEM_MMFF94_ENERGY>
25.3647

> <PUBCHEM_FEATURE_SELFOVERLAP>
65.998

> <PUBCHEM_SHAPE_FINGERPRINT>
10912923 1 18129946796668151093
11089746 13 17060330800047023321
11128504 68 12324246074222324690
11287383 113 15430040976217322596
12403259 415 12679197028124666881
12553582 1 18187912968132851186
12596602 18 17489298707213897922
12616999 72 14562522969107806656
12633257 1 18341896302811066615
12670546 177 13551189987313748462
12760667 363 18260544477033334282
128620 24 11746933209229268583
13914758 101 18412539883016639669
14123255 352 12175614084153640458
14251732 14 13334747838142315161
14251758 9 18272938176597098197
14251764 18 18131630114314924205
14251764 30 17313108553036849003
14251764 38 14333413345760876275
14252887 29 18261664969903600168
14350574 20 16443070486740321896
14455015 7 17675927581628870506
14617045 38 15864074256644733219
14774955 27 11311765194632701738
15188451 53 17632001053366344471
15238133 3 17060348417660051936
15501527 24 7853568006967868153
15537594 2 18408322160164788718
15885798 251 18412543202098288900
1813 80 18334021575047994004
193927 3 18187087222057602918
19489759 90 16415758618122799823
19784866 140 17603579691131188216
20281475 54 18339356486827540429
20325693 3 15213013848184185159
20621476 21 16009047076374612363
20645477 70 18115293596298191927
20871999 31 14056717946248661513
212916 134 17132116827602956783
21315763 191 17676497124314984203
21403212 168 18341333276471055507
21713013 43 16153705444437478899
2215653 11 17313093168922937015
22950370 63 17748836214936295469
2297311 6 15213021540486326295
23402539 116 15913321395517335837
23503953 91 17917711318232359020
23559900 14 16805601507716118597
2767999 5 10375863066039018810
314173 85 18272651225494796220
314194 84 18334008389809689474
328317 168 9223228563672719686
341906 21 16200441277203143513
351380 180 15339117927294412465
351380 3 18334288748010604482
4325135 7 10231745713547513645
465052 167 18261398861839794270
5104073 3 18200878486662271665
57096353 35 11314302880106493309
573450 72 17917990616082689431
8863177 126 17822867505450547603
90127 26 17822003238072214261
9841814 1 18409164433516466600

> <PUBCHEM_SHAPE_MULTIPOLES>
344.94
13.39
1.71
1.45
2.08
0.59
0.23
-5.64
3.13
1.17
0.07
-1.26
-0.48
-0.9

> <PUBCHEM_SHAPE_SELFOVERLAP>
665.774

> <PUBCHEM_SHAPE_VOLUME>
208

> <PUBCHEM_COORDINATE_TYPE>
2
5
10