129856113
  -OEChem-05042113263D

 44 44  0     1  0  0  0  0  0999 V2000
    3.2081   -1.6229    1.4325 O   0  0  0  0  0  0  0  0  0  0  0  0
    3.4392   -1.1557   -2.1363 O   0  0  0  0  0  0  0  0  0  0  0  0
    3.2655    1.3833   -0.6757 O   0  0  0  0  0  0  0  0  0  0  0  0
   -1.0064   -1.4309   -0.3717 O   0  0  0  0  0  0  0  0  0  0  0  0
    3.1954    2.5510    1.8498 O   0  0  0  0  0  0  0  0  0  0  0  0
    0.8370   -0.7551   -2.1736 O   0  0  0  0  0  0  0  0  0  0  0  0
   -1.7271   -2.3662    1.6090 O   0  0  0  0  0  0  0  0  0  0  0  0
   -4.2636   -2.4474    0.5200 N   0  0  2  0  0  0  0  0  0  0  0  0
    3.4047   -0.8625    0.2440 C   0  0  1  0  0  0  0  0  0  0  0  0
    2.7570   -1.5669   -0.9581 C   0  0  1  0  0  0  0  0  0  0  0  0
    2.9631    0.5948    0.4748 C   0  0  1  0  0  0  0  0  0  0  0  0
    1.2662   -1.2964   -1.1535 C   0  0  0  0  0  0  0  0  0  0  0  0
    3.6735    1.2210    1.6752 C   0  0  0  0  0  0  0  0  0  0  0  0
   -3.3406   -1.4126    0.0502 C   0  0  1  0  0  0  0  0  0  0  0  0
   -3.7714   -0.0484    0.6057 C   0  0  0  0  0  0  0  0  0  0  0  0
    0.3314   -1.7543   -0.0504 C   0  0  0  0  0  0  0  0  0  0  0  0
   -2.8740    1.0827    0.1614 C   0  0  0  0  0  0  0  0  0  0  0  0
   -1.9579   -1.7940    0.5512 C   0  0  0  0  0  0  0  0  0  0  0  0
   -1.7606    1.4312    0.9258 C   0  0  0  0  0  0  0  0  0  0  0  0
   -3.1592    1.7786   -1.0132 C   0  0  0  0  0  0  0  0  0  0  0  0
   -0.9321    2.4758    0.5156 C   0  0  0  0  0  0  0  0  0  0  0  0
   -2.3308    2.8231   -1.4235 C   0  0  0  0  0  0  0  0  0  0  0  0
   -1.2173    3.1718   -0.6592 C   0  0  0  0  0  0  0  0  0  0  0  0
    4.4890   -0.8466    0.0663 H   0  0  0  0  0  0  0  0  0  0  0  0
    2.8782   -2.6532   -0.8827 H   0  0  0  0  0  0  0  0  0  0  0  0
    1.8832    0.6588    0.6423 H   0  0  0  0  0  0  0  0  0  0  0  0
    3.4780    0.6642    2.5962 H   0  0  0  0  0  0  0  0  0  0  0  0
    4.7536    1.2769    1.5043 H   0  0  0  0  0  0  0  0  0  0  0  0
   -3.3434   -1.4139   -1.0461 H   0  0  0  0  0  0  0  0  0  0  0  0
   -3.7892   -0.0700    1.7045 H   0  0  0  0  0  0  0  0  0  0  0  0
   -4.8025    0.1747    0.2994 H   0  0  0  0  0  0  0  0  0  0  0  0
    0.4348   -2.8401    0.0498 H   0  0  0  0  0  0  0  0  0  0  0  0
    0.6065   -1.2591    0.8844 H   0  0  0  0  0  0  0  0  0  0  0  0
    3.5665   -2.5132    1.2768 H   0  0  0  0  0  0  0  0  0  0  0  0
    3.3694   -0.1880   -2.2019 H   0  0  0  0  0  0  0  0  0  0  0  0
    2.9721    2.2921   -0.4920 H   0  0  0  0  0  0  0  0  0  0  0  0
   -4.0252   -3.3394    0.0876 H   1  0  0  0  0  0  0  0  0  0  0  0
   -5.2095   -2.2269    0.2104 H   0  0  0  0  0  0  0  0  0  0  0  0
   -1.5273    0.9001    1.8447 H   0  0  0  0  0  0  0  0  0  0  0  0
   -4.0225    1.5147   -1.6182 H   0  0  0  0  0  0  0  0  0  0  0  0
    3.6659    2.9246    2.6144 H   0  0  0  0  0  0  0  0  0  0  0  0
   -0.0643    2.7463    1.1101 H   0  0  0  0  0  0  0  0  0  0  0  0
   -2.5522    3.3644   -2.3387 H   0  0  0  0  0  0  0  0  0  0  0  0
   -0.5716    3.9844   -0.9791 H   0  0  0  0  0  0  0  0  0  0  0  0
  1  9  1  0  0  0  0
  1 34  1  0  0  0  0
  2 10  1  0  0  0  0
  2 35  1  0  0  0  0
  3 11  1  0  0  0  0
  3 36  1  0  0  0  0
  4 16  1  0  0  0  0
  4 18  1  0  0  0  0
  5 13  1  0  0  0  0
  5 41  1  0  0  0  0
  6 12  2  0  0  0  0
  7 18  2  0  0  0  0
  8 14  1  0  0  0  0
  8 37  1  0  0  0  0
  8 38  1  0  0  0  0
  9 10  1  0  0  0  0
  9 11  1  0  0  0  0
  9 24  1  0  0  0  0
 10 12  1  0  0  0  0
 10 25  1  0  0  0  0
 11 13  1  0  0  0  0
 11 26  1  0  0  0  0
 12 16  1  0  0  0  0
 13 27  1  0  0  0  0
 13 28  1  0  0  0  0
 14 15  1  0  0  0  0
 14 18  1  0  0  0  0
 14 29  1  0  0  0  0
 15 17  1  0  0  0  0
 15 30  1  0  0  0  0
 15 31  1  0  0  0  0
 16 32  1  0  0  0  0
 16 33  1  0  0  0  0
 17 19  2  0  0  0  0
 17 20  1  0  0  0  0
 19 21  1  0  0  0  0
 19 39  1  0  0  0  0
 20 22  2  0  0  0  0
 20 40  1  0  0  0  0
 21 23  2  0  0  0  0
 21 42  1  0  0  0  0
 22 23  1  0  0  0  0
 22 43  1  0  0  0  0
 23 44  1  0  0  0  0
M  ISO  1  37   2
M  END
> <PUBCHEM_COMPOUND_CID>
129856113

> <PUBCHEM_CONFORMER_RMSD>
1.2

> <PUBCHEM_CONFORMER_DIVERSEORDER>
1
127
87
37
40
109
56
10
17
120
105
48
89
113
49
79
133
99
94
29
138
107
65
100
84
6
8
59
106
98
114
97
71
101
102
72
123
75
64
136
96
41
103
62
34
76
135
128
121
26
36
93
104
9
134
78
110
143
19
20
27
125
25
130
122
45
141
23
117
124
81
137
83
60
5
11
55
42
142
51
57
119
18
15
4
58
108
3
63
85
43
38
44
33
132
88
77
13
74
129
86
115
52
46
32
118
140
67
68
111
54
66
139
82
70
30
73
91
14
80
116
22
21
39
92
53
35
90
2
28
61
126
50
95
69
47
131
112
31
16
24
7
12

> <PUBCHEM_MMFF94_PARTIAL_CHARGES>
34
1 -0.68
10 0.34
11 0.28
12 0.45
13 0.28
14 0.33
15 0.14
16 0.34
17 -0.14
18 0.66
19 -0.15
2 -0.68
20 -0.15
21 -0.15
22 -0.15
23 -0.15
3 -0.68
34 0.4
35 0.4
36 0.4
37 0.36
38 0.36
39 0.15
4 -0.43
40 0.15
41 0.4
42 0.15
43 0.15
44 0.15
5 -0.68
6 -0.57
7 -0.57
8 -0.99
9 0.28

> <PUBCHEM_EFFECTIVE_ROTOR_COUNT>
10

> <PUBCHEM_PHARMACOPHORE_FEATURES>
13
1 1 acceptor
1 1 donor
1 2 acceptor
1 2 donor
1 3 acceptor
1 3 donor
1 5 acceptor
1 5 donor
1 6 acceptor
1 7 acceptor
1 8 cation
1 8 donor
6 17 19 20 21 22 23 rings

> <PUBCHEM_HEAVY_ATOM_COUNT>
23

> <PUBCHEM_ATOM_DEF_STEREO_COUNT>
4

> <PUBCHEM_ATOM_UDEF_STEREO_COUNT>
0

> <PUBCHEM_BOND_DEF_STEREO_COUNT>
0

> <PUBCHEM_BOND_UDEF_STEREO_COUNT>
0

> <PUBCHEM_ISOTOPIC_ATOM_COUNT>
1

> <PUBCHEM_COMPONENT_COUNT>
1

> <PUBCHEM_CACTVS_TAUTO_COUNT>
20

> <PUBCHEM_CONFORMER_ID>
07BD727100000001

> <PUBCHEM_MMFF94_ENERGY>
39.4021

> <PUBCHEM_FEATURE_SELFOVERLAP>
65.997

> <PUBCHEM_SHAPE_FINGERPRINT>
10366900 7 18269844129026998134
10498660 4 18335709325064112429
11112241 14 17273675745707835409
11370993 70 17972869264101592829
11595378 159 17967255295000147870
11615756 56 18198335165595366172
11759241 127 17846210094442772943
12403259 226 18270692964925933782
12596602 18 16371304323313063486
12633257 1 18197218053228606392
13083527 12 17259061225893009947
13224815 77 17988638592726032709
13402501 40 18342452681543711232
13583140 156 18269546157107848662
14081887 123 18336543824525237759
14223421 5 18412544323121422916
14466204 15 18194677078158473722
14840074 17 17615963752398891800
17357779 13 18341884243175746183
19930381 70 17559949003724936025
22749437 52 18192990422287480412
23557571 272 18410864282170472267
23559900 14 18338805502795469678
238 59 17560218268162422880
3187 122 18189606314834540497
3524813 1 17987520475674574584
49207404 50 18201716275646612112
81228 2 18192175783440946875
84936 182 17110993851844814597
9709674 26 18200306624203649076
9925002 15 16334404940665940439

> <PUBCHEM_SHAPE_MULTIPOLES>
427.26
7.78
3.69
1.72
2.38
1.32
-0.3
-0.41
1.08
-2.09
0.3
1.36
0.14
2.37

> <PUBCHEM_SHAPE_SELFOVERLAP>
866.712

> <PUBCHEM_SHAPE_VOLUME>
246.1

> <PUBCHEM_COORDINATE_TYPE>
2
5
10