133612278
  -OEChem-05042113263D

 29 29  0     1  0  0  0  0  0999 V2000
    3.4990    0.3142    0.0860 P   0  0  0  0  0  0  0  0  0  0  0  0
   -0.8313    0.8484    0.1407 O   0  0  0  0  0  0  0  0  0  0  0  0
   -0.3222   -0.5172   -1.7001 O   0  0  0  0  0  0  0  0  0  0  0  0
   -1.3199   -2.6834   -0.3761 O   0  0  0  0  0  0  0  0  0  0  0  0
   -3.6561   -1.1839    0.9210 O   0  0  0  0  0  0  0  0  0  0  0  0
    1.9331    0.3212   -0.3244 O   0  0  0  0  0  0  0  0  0  0  0  0
   -2.5695    3.0597   -0.0098 O   0  0  0  0  0  0  0  0  0  0  0  0
    3.4497    0.4028    1.6998 O   0  0  0  0  0  0  0  0  0  0  0  0
    3.9610   -1.2110   -0.1888 O   0  0  0  0  0  0  0  0  0  0  0  0
    4.3339    1.3677   -0.5814 O   0  0  0  0  0  0  0  0  0  0  0  0
   -0.3320   -0.4369   -0.2741 C   0  0  2  0  0  0  0  0  0  0  0  0
   -1.3390   -1.4355    0.2875 C   0  0  1  0  0  0  0  0  0  0  0  0
   -2.6419   -0.7006    0.0594 C   0  0  2  0  0  0  0  0  0  0  0  0
   -2.2436    0.7299    0.4056 C   0  0  2  0  0  0  0  0  0  0  0  0
    1.0762   -0.6431    0.2626 C   0  0  0  0  0  0  0  0  0  0  0  0
   -2.9974    1.7678   -0.4080 C   0  0  0  0  0  0  0  0  0  0  0  0
   -1.1768   -1.6099    1.3587 H   0  0  0  0  0  0  0  0  0  0  0  0
   -2.9901   -0.8089   -0.9740 H   0  0  0  0  0  0  0  0  0  0  0  0
   -2.3789    0.9411    1.4736 H   0  0  0  0  0  0  0  0  0  0  0  0
    1.4386   -1.6421    0.0002 H   0  0  0  0  0  0  0  0  0  0  0  0
    1.0935   -0.5208    1.3502 H   0  0  0  0  0  0  0  0  0  0  0  0
   -4.0766    1.6873   -0.2456 H   0  0  0  0  0  0  0  0  0  0  0  0
   -2.7810    1.6610   -1.4760 H   0  0  0  0  0  0  0  0  0  0  0  0
    0.5115   -0.1296   -2.0157 H   0  0  0  0  0  0  0  0  0  0  0  0
   -2.0623   -3.2084   -0.0315 H   0  0  0  0  0  0  0  0  0  0  0  0
   -3.3485   -1.0945    1.8389 H   0  0  0  0  0  0  0  0  0  0  0  0
   -3.0658    3.7030   -0.5441 H   0  0  0  0  0  0  0  0  0  0  0  0
    4.2898    0.5065    2.1954 H   0  0  0  0  0  0  0  0  0  0  0  0
    4.9060   -1.4484   -0.0752 H   0  0  0  0  0  0  0  0  0  0  0  0
  1  6  1  0  0  0  0
  1  8  1  0  0  0  0
  1  9  1  0  0  0  0
  1 10  2  0  0  0  0
  2 11  1  0  0  0  0
  2 14  1  0  0  0  0
  3 11  1  0  0  0  0
  3 24  1  0  0  0  0
  4 12  1  0  0  0  0
  4 25  1  0  0  0  0
  5 13  1  0  0  0  0
  5 26  1  0  0  0  0
  6 15  1  0  0  0  0
  7 16  1  0  0  0  0
  7 27  1  0  0  0  0
  8 28  1  0  0  0  0
  9 29  1  0  0  0  0
 11 12  1  0  0  0  0
 11 15  1  0  0  0  0
 12 13  1  0  0  0  0
 12 17  1  0  0  0  0
 13 14  1  0  0  0  0
 13 18  1  0  0  0  0
 14 16  1  0  0  0  0
 14 19  1  0  0  0  0
 15 20  1  0  0  0  0
 15 21  1  0  0  0  0
 16 22  1  0  0  0  0
 16 23  1  0  0  0  0
M  END
> <PUBCHEM_COMPOUND_CID>
133612278

> <PUBCHEM_CONFORMER_RMSD>
0.6

> <PUBCHEM_CONFORMER_DIVERSEORDER>
1
37
44
32
52
15
24
51
41
11
31
39
47
36
27
9
46
13
43
34
35
48
21
25
17
7
49
20
50
8
38
30
3
16
12
18
45
42
2
29
33
6
14
4
22
40
26
10
19
23
28
5

> <PUBCHEM_MMFF94_PARTIAL_CHARGES>
22
1 1.51
10 -0.7
11 0.56
12 0.28
13 0.28
14 0.28
15 0.28
16 0.28
2 -0.56
24 0.4
25 0.4
26 0.4
27 0.4
28 0.5
29 0.5
3 -0.68
4 -0.68
5 -0.68
6 -0.55
7 -0.68
8 -0.77
9 -0.77

> <PUBCHEM_EFFECTIVE_ROTOR_COUNT>
5

> <PUBCHEM_PHARMACOPHORE_FEATURES>
14
1 10 acceptor
1 2 acceptor
1 3 acceptor
1 3 donor
1 4 acceptor
1 4 donor
1 5 acceptor
1 5 donor
1 7 acceptor
1 7 donor
1 8 acceptor
1 9 acceptor
4 1 8 9 10 anion
5 2 11 12 13 14 rings

> <PUBCHEM_HEAVY_ATOM_COUNT>
16

> <PUBCHEM_ATOM_DEF_STEREO_COUNT>
4

> <PUBCHEM_ATOM_UDEF_STEREO_COUNT>
0

> <PUBCHEM_BOND_DEF_STEREO_COUNT>
0

> <PUBCHEM_BOND_UDEF_STEREO_COUNT>
0

> <PUBCHEM_ISOTOPIC_ATOM_COUNT>
0

> <PUBCHEM_COMPONENT_COUNT>
1

> <PUBCHEM_CACTVS_TAUTO_COUNT>
1

> <PUBCHEM_CONFORMER_ID>
07F6C2F600000001

> <PUBCHEM_MMFF94_ENERGY>
5.8978

> <PUBCHEM_FEATURE_SELFOVERLAP>
71.145

> <PUBCHEM_SHAPE_FINGERPRINT>
10608611 8 18413950581434824528
12173636 292 18411130325192421710
12186901 62 18342469135673938460
122479 349 18340765923227077021
12500047 106 18341888572333955610
12932764 1 17632292423868245446
13024252 1 11169900689647522015
13296909 8 18260268542748941477
14144814 61 18260830410317700522
14289901 80 18335703875141023402
15219456 202 18130235843429637567
15669948 3 18338231682316868330
16945 1 18339641243349220879
1741750 31 18267863895869542793
17834072 32 18337394829230008709
18186145 218 16702301265347789056
19422 9 17967534562706481866
20510252 161 18413113861549401873
20645477 56 18271805748218451552
20645477 70 16630255744884891454
21524375 3 18056472855407079085
21652331 79 18266181814930666512
23402539 116 18271240616922992279
23557571 272 18272664458368020117
23559900 14 18198625428639972366
2748010 2 18267881479697598751
3071541 12 17619914955007005127
4175511 318 18060701718776816132
5706482 22 18337099073781703875

> <PUBCHEM_SHAPE_MULTIPOLES>
280.3
7.21
2.26
0.99
6.99
0.61
0.02
1.95
0.88
-2.21
-0.18
0.34
-0.05
0.22

> <PUBCHEM_SHAPE_SELFOVERLAP>
550.299

> <PUBCHEM_SHAPE_VOLUME>
169.6

> <PUBCHEM_COORDINATE_TYPE>
2
5
10