13559839
  -OEChem-05042113263D

 23 22  0     1  0  0  0  0  0999 V2000
    1.8244   -0.9461   -0.8216 O   0  0  0  0  0  0  0  0  0  0  0  0
   -0.4103   -2.2116    0.0020 O   0  0  0  0  0  0  0  0  0  0  0  0
    3.4870    1.2649   -0.6047 O   0  0  0  0  0  0  0  0  0  0  0  0
   -2.0192   -0.4754   -1.2139 O   0  0  0  0  0  0  0  0  0  0  0  0
   -3.0229    1.8184   -0.2804 O   0  0  0  0  0  0  0  0  0  0  0  0
    0.5730   -0.3410    1.1573 C   0  0  0  0  0  0  0  0  0  0  0  0
    1.4397    0.1607   -0.0082 C   0  0  1  0  0  0  0  0  0  0  0  0
   -0.7257   -1.0421    0.7404 C   0  0  1  0  0  0  0  0  0  0  0  0
    2.7066    0.8398    0.5075 C   0  0  0  0  0  0  0  0  0  0  0  0
   -1.6688   -0.1630   -0.0753 C   0  0  0  0  0  0  0  0  0  0  0  0
   -2.1838    1.0954    0.5970 C   0  0  0  0  0  0  0  0  0  0  0  0
    1.1648   -1.0658    1.7328 H   0  0  0  0  0  0  0  0  0  0  0  0
    0.3449    0.4959    1.8269 H   0  0  0  0  0  0  0  0  0  0  0  0
    0.8877    0.8596   -0.6463 H   0  0  0  0  0  0  0  0  0  0  0  0
   -1.2659   -1.3611    1.6392 H   0  0  0  0  0  0  0  0  0  0  0  0
    3.3203    0.1511    1.0973 H   0  0  0  0  0  0  0  0  0  0  0  0
    2.4691    1.7159    1.1181 H   0  0  0  0  0  0  0  0  0  0  0  0
   -1.3520    1.7408    0.8881 H   0  0  0  0  0  0  0  0  0  0  0  0
   -2.7630    0.8155    1.4807 H   0  0  0  0  0  0  0  0  0  0  0  0
    1.0214   -1.2969   -1.2422 H   0  0  0  0  0  0  0  0  0  0  0  0
   -1.2371   -2.7059   -0.1316 H   0  0  0  0  0  0  0  0  0  0  0  0
    3.6819    0.4778   -1.1417 H   0  0  0  0  0  0  0  0  0  0  0  0
   -2.4740    2.1273   -1.0214 H   0  0  0  0  0  0  0  0  0  0  0  0
  1  7  1  0  0  0  0
  1 20  1  0  0  0  0
  2  8  1  0  0  0  0
  2 21  1  0  0  0  0
  3  9  1  0  0  0  0
  3 22  1  0  0  0  0
  4 10  2  0  0  0  0
  5 11  1  0  0  0  0
  5 23  1  0  0  0  0
  6  7  1  0  0  0  0
  6  8  1  0  0  0  0
  6 12  1  0  0  0  0
  6 13  1  0  0  0  0
  7  9  1  0  0  0  0
  7 14  1  0  0  0  0
  8 10  1  0  0  0  0
  8 15  1  0  0  0  0
  9 16  1  0  0  0  0
  9 17  1  0  0  0  0
 10 11  1  0  0  0  0
 11 18  1  0  0  0  0
 11 19  1  0  0  0  0
M  END
> <PUBCHEM_COMPOUND_CID>
13559839

> <PUBCHEM_CONFORMER_RMSD>
0.6

> <PUBCHEM_CONFORMER_DIVERSEORDER>
1
9
106
18
46
76
86
94
2
119
117
42
48
83
67
10
61
85
16
26
3
108
62
116
93
51
14
64
58
55
50
6
89
100
103
88
57
17
75
34
44
65
107
49
122
121
91
35
97
4
109
66
28
13
102
124
5
71
110
39
27
79
15
120
101
126
45
77
43
68
81
73
104
56
92
8
125
23
115
12
112
52
123
22
11
38
90
7
20
70
98
53
29
84
95
114
19
25
40
87
80
31
118
47
37
69
82
74
24
99
41
33
30
63
36
21
60
78
113
32
54
111
72
59
105
96

> <PUBCHEM_MMFF94_PARTIAL_CHARGES>
14
1 -0.68
10 0.45
11 0.34
2 -0.68
20 0.4
21 0.4
22 0.4
23 0.4
3 -0.68
4 -0.57
5 -0.68
7 0.28
8 0.34
9 0.28

> <PUBCHEM_EFFECTIVE_ROTOR_COUNT>
5

> <PUBCHEM_PHARMACOPHORE_FEATURES>
9
1 1 acceptor
1 1 donor
1 2 acceptor
1 2 donor
1 3 acceptor
1 3 donor
1 4 acceptor
1 5 acceptor
1 5 donor

> <PUBCHEM_HEAVY_ATOM_COUNT>
11

> <PUBCHEM_ATOM_DEF_STEREO_COUNT>
2

> <PUBCHEM_ATOM_UDEF_STEREO_COUNT>
0

> <PUBCHEM_BOND_DEF_STEREO_COUNT>
0

> <PUBCHEM_BOND_UDEF_STEREO_COUNT>
0

> <PUBCHEM_ISOTOPIC_ATOM_COUNT>
0

> <PUBCHEM_COMPONENT_COUNT>
1

> <PUBCHEM_CACTVS_TAUTO_COUNT>
6

> <PUBCHEM_CONFORMER_ID>
00CEE81F00000001

> <PUBCHEM_MMFF94_ENERGY>
8.9326

> <PUBCHEM_FEATURE_SELFOVERLAP>
45.713

> <PUBCHEM_SHAPE_FINGERPRINT>
100427 49 16966900112592489507
10857977 72 15792597174602572729
12716758 59 18341328993761147930
12897270 3 17346595300531056712
12932764 1 17703792560904713434
13839132 238 18408609171005456812
14128692 85 11959722802464442512
14390081 3 18410009939992139889
15310529 11 17989207057554774615
15775835 57 18113896044005155993
170605 34 18189054213941946769
18342897 96 18413105061103441837
18534176 82 18195527219109457298
19837323 101 18410862078904977707
20653085 51 18409457959485205008
20828058 19 8574424297206210449
21028194 46 18260836942841658097
21524375 3 18334568006435641225
23402539 116 18267850860511787711
305870 269 18261106318800706354
5084963 1 17313103051088764731

> <PUBCHEM_SHAPE_MULTIPOLES>
197.03
4.59
1.71
1.02
1.76
0.22
-0.02
-3
0.88
-0.61
0.07
-0.02
0.1
-0.07

> <PUBCHEM_SHAPE_SELFOVERLAP>
370.093

> <PUBCHEM_SHAPE_VOLUME>
121.7

> <PUBCHEM_COORDINATE_TYPE>
2
5
10