14461866
  -OEChem-05042113263D

 23 22  0     1  0  0  0  0  0999 V2000
   -0.6597    0.3860   -1.6170 O   0  0  0  0  0  0  0  0  0  0  0  0
   -0.0765   -1.9696   -0.0293 O   0  0  0  0  0  0  0  0  0  0  0  0
   -2.5391    0.0031    1.5089 O   0  0  0  0  0  0  0  0  0  0  0  0
    2.3454   -1.0601   -0.5282 O   0  0  0  0  0  0  0  0  0  0  0  0
    3.4677    1.2424    0.2226 O   0  0  0  0  0  0  0  0  0  0  0  0
   -0.8399    0.3431   -0.2003 C   0  0  2  0  0  0  0  0  0  0  0  0
    0.1638   -0.6437    0.4175 C   0  0  2  0  0  0  0  0  0  0  0  0
   -2.3062   -0.0158    0.1033 C   0  0  2  0  0  0  0  0  0  0  0  0
   -3.2845    0.9493   -0.5588 C   0  0  0  0  0  0  0  0  0  0  0  0
    1.6130   -0.2883    0.0917 C   0  0  0  0  0  0  0  0  0  0  0  0
    2.1161    1.0537    0.5896 C   0  0  0  0  0  0  0  0  0  0  0  0
   -0.6402    1.3492    0.1842 H   0  0  0  0  0  0  0  0  0  0  0  0
    0.0718   -0.6441    1.5094 H   0  0  0  0  0  0  0  0  0  0  0  0
   -2.5388   -1.0218   -0.2664 H   0  0  0  0  0  0  0  0  0  0  0  0
   -3.2076    0.9236   -1.6496 H   0  0  0  0  0  0  0  0  0  0  0  0
   -3.1101    1.9757   -0.2175 H   0  0  0  0  0  0  0  0  0  0  0  0
   -4.3136    0.6975   -0.2798 H   0  0  0  0  0  0  0  0  0  0  0  0
   -0.8143   -0.5109   -1.9602 H   0  0  0  0  0  0  0  0  0  0  0  0
    1.5290    1.8680    0.1602 H   0  0  0  0  0  0  0  0  0  0  0  0
    2.0453    1.0790    1.6800 H   0  0  0  0  0  0  0  0  0  0  0  0
    0.4957   -2.5621    0.4877 H   0  0  0  0  0  0  0  0  0  0  0  0
   -2.0880   -0.7667    1.8942 H   0  0  0  0  0  0  0  0  0  0  0  0
    3.5025    1.2968   -0.7477 H   0  0  0  0  0  0  0  0  0  0  0  0
  1  6  1  0  0  0  0
  1 18  1  0  0  0  0
  2  7  1  0  0  0  0
  2 21  1  0  0  0  0
  3  8  1  0  0  0  0
  3 22  1  0  0  0  0
  4 10  2  0  0  0  0
  5 11  1  0  0  0  0
  5 23  1  0  0  0  0
  6  7  1  0  0  0  0
  6  8  1  0  0  0  0
  6 12  1  0  0  0  0
  7 10  1  0  0  0  0
  7 13  1  0  0  0  0
  8  9  1  0  0  0  0
  8 14  1  0  0  0  0
  9 15  1  0  0  0  0
  9 16  1  0  0  0  0
  9 17  1  0  0  0  0
 10 11  1  0  0  0  0
 11 19  1  0  0  0  0
 11 20  1  0  0  0  0
M  END
> <PUBCHEM_COMPOUND_CID>
14461866

> <PUBCHEM_CONFORMER_RMSD>
0.6

> <PUBCHEM_CONFORMER_DIVERSEORDER>
1
44
41
12
46
36
24
25
47
19
17
28
11
7
39
26
8
42
48
14
9
35
40
37
32
43
3
16
15
49
45
38
4
23
22
6
5
30
27
18
13
34
10
20
31
21
33
29
2

> <PUBCHEM_MMFF94_PARTIAL_CHARGES>
14
1 -0.68
10 0.45
11 0.34
18 0.4
2 -0.68
21 0.4
22 0.4
23 0.4
3 -0.68
4 -0.57
5 -0.68
6 0.28
7 0.34
8 0.28

> <PUBCHEM_EFFECTIVE_ROTOR_COUNT>
4

> <PUBCHEM_PHARMACOPHORE_FEATURES>
9
1 1 acceptor
1 1 donor
1 2 acceptor
1 2 donor
1 3 acceptor
1 3 donor
1 4 acceptor
1 5 acceptor
1 5 donor

> <PUBCHEM_HEAVY_ATOM_COUNT>
11

> <PUBCHEM_ATOM_DEF_STEREO_COUNT>
3

> <PUBCHEM_ATOM_UDEF_STEREO_COUNT>
0

> <PUBCHEM_BOND_DEF_STEREO_COUNT>
0

> <PUBCHEM_BOND_UDEF_STEREO_COUNT>
0

> <PUBCHEM_ISOTOPIC_ATOM_COUNT>
0

> <PUBCHEM_COMPONENT_COUNT>
1

> <PUBCHEM_CACTVS_TAUTO_COUNT>
10

> <PUBCHEM_CONFORMER_ID>
00DCABAA00000001

> <PUBCHEM_MMFF94_ENERGY>
10.6177

> <PUBCHEM_FEATURE_SELFOVERLAP>
45.696

> <PUBCHEM_SHAPE_FINGERPRINT>
10857977 72 17313393339469956121
11031198 65 18130513019550130180
12932741 1 18260835856188610211
12932764 1 18261398814689976099
14325111 11 18411416215458802931
14390081 3 18335415730037988213
15310529 11 17203609306512171767
15775835 57 17917992780419470681
16945 1 18129107722982491607
18175812 5 18041282088646372855
18186145 218 18130516261933784524
20645464 45 18261108586453598816
20653085 51 16199880573433170032
20711983 171 16271934770373792145
20715346 28 18187655703691485771
21293036 1 13830128429432997736
23235685 24 18340759438200896032
23552423 10 15912219602713091941
3248919 1 17346315968795800231
5084963 1 17560512898518076427
63268167 104 18060415807030511857

> <PUBCHEM_SHAPE_MULTIPOLES>
197.03
4.89
1.34
1.05
0.06
0.35
0.02
-2.02
-0.34
0.58
0.03
-0.52
-0.08
0.5

> <PUBCHEM_SHAPE_SELFOVERLAP>
372.121

> <PUBCHEM_SHAPE_VOLUME>
121.7

> <PUBCHEM_COORDINATE_TYPE>
2
5
10