14806557
  -OEChem-05042113263D

 28 27  0     1  0  0  0  0  0999 V2000
    0.5596    0.8261    1.7929 O   0  0  0  0  0  0  0  0  0  0  0  0
    0.5857    1.5349   -1.0293 O   0  0  0  0  0  0  0  0  0  0  0  0
    2.8184    0.9698    0.0951 O   0  0  0  0  0  0  0  0  0  0  0  0
    4.1152   -1.4405   -0.5766 O   0  0  0  0  0  0  0  0  0  0  0  0
   -1.9783    1.6936   -0.3992 O   0  0  0  0  0  0  0  0  0  0  0  0
   -3.6527   -0.4827   -0.2698 N   0  0  0  0  0  0  0  0  0  0  0  0
    0.7668   -0.1248    0.7401 C   0  0  1  0  0  0  0  0  0  0  0  0
    0.0138    0.3423   -0.5132 C   0  0  1  0  0  0  0  0  0  0  0  0
    2.2867   -0.2824    0.5441 C   0  0  1  0  0  0  0  0  0  0  0  0
   -1.4740    0.5796   -0.2515 C   0  0  0  0  0  0  0  0  0  0  0  0
    2.7001   -1.3620   -0.4554 C   0  0  0  0  0  0  0  0  0  0  0  0
   -2.2802   -0.6270    0.1943 C   0  0  0  0  0  0  0  0  0  0  0  0
   -4.4611   -1.6273    0.1285 C   0  0  0  0  0  0  0  0  0  0  0  0
    0.3483   -1.0762    1.0883 H   0  0  0  0  0  0  0  0  0  0  0  0
    0.0885   -0.4167   -1.2998 H   0  0  0  0  0  0  0  0  0  0  0  0
    2.7705   -0.4818    1.5078 H   0  0  0  0  0  0  0  0  0  0  0  0
    2.3186   -1.1347   -1.4552 H   0  0  0  0  0  0  0  0  0  0  0  0
    2.3209   -2.3437   -0.1550 H   0  0  0  0  0  0  0  0  0  0  0  0
   -2.2243   -0.6901    1.2862 H   0  0  0  0  0  0  0  0  0  0  0  0
   -1.8330   -1.5246   -0.2460 H   0  0  0  0  0  0  0  0  0  0  0  0
    0.9878    0.4759    2.5926 H   0  0  0  0  0  0  0  0  0  0  0  0
    0.1612    1.7173   -1.8851 H   0  0  0  0  0  0  0  0  0  0  0  0
    2.5597    1.6452    0.7454 H   0  0  0  0  0  0  0  0  0  0  0  0
   -4.0587    0.3641    0.1282 H   0  0  0  0  0  0  0  0  0  0  0  0
    4.4722   -1.6410    0.3054 H   0  0  0  0  0  0  0  0  0  0  0  0
   -4.0750   -2.5553   -0.3056 H   0  0  0  0  0  0  0  0  0  0  0  0
   -5.4846   -1.4948   -0.2356 H   0  0  0  0  0  0  0  0  0  0  0  0
   -4.5015   -1.7305    1.2178 H   0  0  0  0  0  0  0  0  0  0  0  0
  1  7  1  0  0  0  0
  1 21  1  0  0  0  0
  2  8  1  0  0  0  0
  2 22  1  0  0  0  0
  3  9  1  0  0  0  0
  3 23  1  0  0  0  0
  4 11  1  0  0  0  0
  4 25  1  0  0  0  0
  5 10  2  0  0  0  0
  6 12  1  0  0  0  0
  6 13  1  0  0  0  0
  6 24  1  0  0  0  0
  7  8  1  0  0  0  0
  7  9  1  0  0  0  0
  7 14  1  0  0  0  0
  8 10  1  0  0  0  0
  8 15  1  0  0  0  0
  9 11  1  0  0  0  0
  9 16  1  0  0  0  0
 10 12  1  0  0  0  0
 11 17  1  0  0  0  0
 11 18  1  0  0  0  0
 12 19  1  0  0  0  0
 12 20  1  0  0  0  0
 13 26  1  0  0  0  0
 13 27  1  0  0  0  0
 13 28  1  0  0  0  0
M  END
> <PUBCHEM_COMPOUND_CID>
14806557

> <PUBCHEM_CONFORMER_RMSD>
0.6

> <PUBCHEM_CONFORMER_DIVERSEORDER>
1
79
45
189
196
133
203
39
179
55
192
81
116
214
222
169
96
3
28
225
30
25
11
186
118
193
5
146
112
218
88
188
99
157
36
208
181
106
150
138
85
21
217
77
135
104
173
172
235
24
141
110
160
89
44
195
34
119
83
37
90
111
197
201
229
226
185
60
212
230
136
228
57
65
18
123
43
153
137
216
10
170
155
198
92
205
31
98
117
132
70
207
209
13
176
171
108
97
151
213
175
120
134
184
149
51
38
100
67
8
14
167
199
63
223
165
215
94
41
194
103
227
231
140
220
52
6
124
211
40
115
113
190
158
91
9
23
2
131
187
20
127
84
93
42
177
206
142
46
109
12
147
78
210
143
105
156
69
168
22
219
204
4
128
56
164
58
200
148
163
191
87
183
82
180
50
126
101
48
86
62
234
7
122
33
107
166
47
232
224
73
233
121
152
202
17
182
19
32
71
53
139
15
125
54
174
27
74
178
129
130
161
80
16
29
162
159
72
61
145
95
144
102
35
68
154
66
59
26
221
49
75
64
76
114

> <PUBCHEM_MMFF94_PARTIAL_CHARGES>
18
1 -0.68
10 0.45
11 0.28
12 0.33
13 0.27
2 -0.68
21 0.4
22 0.4
23 0.4
24 0.36
25 0.4
3 -0.68
4 -0.68
5 -0.57
6 -0.9
7 0.28
8 0.34
9 0.28

> <PUBCHEM_EFFECTIVE_ROTOR_COUNT>
6

> <PUBCHEM_PHARMACOPHORE_FEATURES>
11
1 1 acceptor
1 1 donor
1 2 acceptor
1 2 donor
1 3 acceptor
1 3 donor
1 4 acceptor
1 4 donor
1 5 acceptor
1 6 cation
1 6 donor

> <PUBCHEM_HEAVY_ATOM_COUNT>
13

> <PUBCHEM_ATOM_DEF_STEREO_COUNT>
3

> <PUBCHEM_ATOM_UDEF_STEREO_COUNT>
0

> <PUBCHEM_BOND_DEF_STEREO_COUNT>
0

> <PUBCHEM_BOND_UDEF_STEREO_COUNT>
0

> <PUBCHEM_ISOTOPIC_ATOM_COUNT>
0

> <PUBCHEM_COMPONENT_COUNT>
1

> <PUBCHEM_CACTVS_TAUTO_COUNT>
10

> <PUBCHEM_CONFORMER_ID>
00E1EE1D00000001

> <PUBCHEM_MMFF94_ENERGY>
20.2274

> <PUBCHEM_FEATURE_SELFOVERLAP>
55.878

> <PUBCHEM_SHAPE_FINGERPRINT>
11769659 78 18412543180496637282
12006461 19 18342458162096222727
12032990 46 18410294705082597743
124424 183 17346313740045390401
12932764 1 17459184088550759564
13705890 14 18334575763030604566
14251710 61 18413112740420882927
14252887 29 18263365944276848571
14350558 41 18342463659437843551
15477762 27 18334578000618817103
177051 138 18411418440563326055
17834074 16 18342737399199799975
18186145 218 15647348428355419590
19422 9 18343872103731063937
20281407 28 18342176687166666571
20281475 54 18201719604452033815
20645477 70 17970342836037842159
20671657 53 17676478475946786661
20871998 22 18408604794565644461
20871999 31 17968096378545931223
21293036 1 16515408473138501718
22485316 2 18272929466466608383
23380061 451 17846501469065646163
23382010 3 15647348475499936742
23402539 116 17095808694717370926
23402655 69 12540684938667352235
31174 14 17703216446950474137
4047638 21 8142090883330236311
449060 23 18259423022486110711
7364860 26 18265335203587835493
8030462 33 16732980882004248480
83771 10 18342460326443007950

> <PUBCHEM_SHAPE_MULTIPOLES>
233.21
6.88
1.62
1
3.12
0.01
-0.31
-4.52
0.71
0.1
0.3
-0.35
0.22
0.52

> <PUBCHEM_SHAPE_SELFOVERLAP>
440.864

> <PUBCHEM_SHAPE_VOLUME>
143.6

> <PUBCHEM_COORDINATE_TYPE>
2
5
10