18534396
  -OEChem-05042113263D

 23 22  0     1  0  0  0  0  0999 V2000
   -3.8766    1.1082   -0.1848 F   0  0  0  0  0  0  0  0  0  0  0  0
    0.3880    1.5766    0.4121 O   0  0  0  0  0  0  0  0  0  0  0  0
    2.2298   -0.4387    1.2943 O   0  0  0  0  0  0  0  0  0  0  0  0
   -0.3042   -1.9789    0.0609 O   0  0  0  0  0  0  0  0  0  0  0  0
    4.2089    0.1521   -0.5828 O   0  0  0  0  0  0  0  0  0  0  0  0
   -2.6645   -1.1787   -0.7043 O   0  0  0  0  0  0  0  0  0  0  0  0
    0.4537    0.2827   -0.1891 C   0  0  1  0  0  0  0  0  0  0  0  0
    1.8918   -0.2425   -0.0779 C   0  0  1  0  0  0  0  0  0  0  0  0
   -0.6069   -0.6376    0.4329 C   0  0  1  0  0  0  0  0  0  0  0  0
    2.9077    0.7198   -0.6959 C   0  0  0  0  0  0  0  0  0  0  0  0
   -2.0185   -0.3514   -0.0608 C   0  0  0  0  0  0  0  0  0  0  0  0
   -2.6092    0.9884    0.2955 C   0  0  0  0  0  0  0  0  0  0  0  0
    0.2249    0.4208   -1.2533 H   0  0  0  0  0  0  0  0  0  0  0  0
    1.9864   -1.2173   -0.5699 H   0  0  0  0  0  0  0  0  0  0  0  0
   -0.6115   -0.5774    1.5262 H   0  0  0  0  0  0  0  0  0  0  0  0
    2.6918    0.8948   -1.7543 H   0  0  0  0  0  0  0  0  0  0  0  0
    2.9256    1.6759   -0.1632 H   0  0  0  0  0  0  0  0  0  0  0  0
    0.6102    1.4749    1.3535 H   0  0  0  0  0  0  0  0  0  0  0  0
    3.1471   -0.7600    1.3263 H   0  0  0  0  0  0  0  0  0  0  0  0
   -0.2775   -2.0230   -0.9105 H   0  0  0  0  0  0  0  0  0  0  0  0
   -2.6461    1.1002    1.3816 H   0  0  0  0  0  0  0  0  0  0  0  0
   -2.0252    1.7925   -0.1536 H   0  0  0  0  0  0  0  0  0  0  0  0
    4.8304    0.7827   -0.9849 H   0  0  0  0  0  0  0  0  0  0  0  0
  1 12  1  0  0  0  0
  2  7  1  0  0  0  0
  2 18  1  0  0  0  0
  3  8  1  0  0  0  0
  3 19  1  0  0  0  0
  4  9  1  0  0  0  0
  4 20  1  0  0  0  0
  5 10  1  0  0  0  0
  5 23  1  0  0  0  0
  6 11  2  0  0  0  0
  7  8  1  0  0  0  0
  7  9  1  0  0  0  0
  7 13  1  0  0  0  0
  8 10  1  0  0  0  0
  8 14  1  0  0  0  0
  9 11  1  0  0  0  0
  9 15  1  0  0  0  0
 10 16  1  0  0  0  0
 10 17  1  0  0  0  0
 11 12  1  0  0  0  0
 12 21  1  0  0  0  0
 12 22  1  0  0  0  0
M  END
> <PUBCHEM_COMPOUND_CID>
18534396

> <PUBCHEM_CONFORMER_RMSD>
1

> <PUBCHEM_CONFORMER_DIVERSEORDER>
1
34
11
69
76
8
80
65
4
75
3
51
15
46
50
30
2
56
66
79
40
53
23
82
13
41
36
19
9
70
60
81
78
6
32
55
74
54
49
45
68
73
16
7
48
42
18
64
5
67
38
24
20
28
84
10
29
33
71
27
44
58
63
83
72
14
12
77
21
35
26
52
25
59
39
22
17
62
43
37
31
57
47
61

> <PUBCHEM_MMFF94_PARTIAL_CHARGES>
16
1 -0.34
10 0.28
11 0.45
12 0.4
18 0.4
19 0.4
2 -0.68
20 0.4
23 0.4
3 -0.68
4 -0.68
5 -0.68
6 -0.57
7 0.28
8 0.28
9 0.34

> <PUBCHEM_EFFECTIVE_ROTOR_COUNT>
5

> <PUBCHEM_PHARMACOPHORE_FEATURES>
9
1 2 acceptor
1 2 donor
1 3 acceptor
1 3 donor
1 4 acceptor
1 4 donor
1 5 acceptor
1 5 donor
1 6 acceptor

> <PUBCHEM_HEAVY_ATOM_COUNT>
12

> <PUBCHEM_ATOM_DEF_STEREO_COUNT>
0

> <PUBCHEM_ATOM_UDEF_STEREO_COUNT>
3

> <PUBCHEM_BOND_DEF_STEREO_COUNT>
0

> <PUBCHEM_BOND_UDEF_STEREO_COUNT>
0

> <PUBCHEM_ISOTOPIC_ATOM_COUNT>
0

> <PUBCHEM_COMPONENT_COUNT>
1

> <PUBCHEM_CACTVS_TAUTO_COUNT>
10

> <PUBCHEM_CONFORMER_ID>
011ACFFC00000001

> <PUBCHEM_MMFF94_ENERGY>
15.9314

> <PUBCHEM_FEATURE_SELFOVERLAP>
45.698

> <PUBCHEM_SHAPE_FINGERPRINT>
11062470 55 18413393133229001396
12932741 1 16917063395138262042
12932764 1 17632573881137839031
14325111 11 18408605863685511919
14943859 89 18341618105031292517
14993402 34 18335419088354026941
15310529 11 16805595962881482648
15775835 57 18259985959443860389
177051 138 10375874065202259652
20653085 51 18341056306187226449
21293036 1 18412830208855349852
22926399 65 18411141333309964060
23235685 24 18410573967971588468
23402539 116 18342453738643476356
23402655 69 18269826533385029173
23559900 14 18201722852037873908
3248919 1 17676479583737106218
5084963 1 17846221128176741875
528886 8 18411418397281109891
57812782 119 15698000734292384644

> <PUBCHEM_SHAPE_MULTIPOLES>
210.33
5.91
1.41
0.83
1.19
0.2
-0.11
-1.47
1.14
-0.7
-0.02
0.31
0.05
-0.38

> <PUBCHEM_SHAPE_SELFOVERLAP>
401.795

> <PUBCHEM_SHAPE_VOLUME>
128.1

> <PUBCHEM_COORDINATE_TYPE>
2
5
10