189150
  -OEChem-05042113263D

 34 33  0     1  0  0  0  0  0999 V2000
    5.4986    0.6413   -0.1313 P   0  0  0  0  0  0  0  0  0  0  0  0
   -5.2902    0.9644   -0.0242 P   0  0  0  0  0  0  0  0  0  0  0  0
    0.1624    0.8297   -0.2532 O   0  0  0  0  0  0  0  0  0  0  0  0
    1.7955   -0.3662    1.7984 O   0  0  0  0  0  0  0  0  0  0  0  0
   -0.3095   -2.7565    0.2767 O   0  0  0  0  0  0  0  0  0  0  0  0
    4.1911   -0.1452    0.3999 O   0  0  0  0  0  0  0  0  0  0  0  0
   -4.1518   -0.0958   -0.4790 O   0  0  0  0  0  0  0  0  0  0  0  0
   -2.3572   -1.8926   -1.2867 O   0  0  0  0  0  0  0  0  0  0  0  0
    5.5098    0.2867   -1.7090 O   0  0  0  0  0  0  0  0  0  0  0  0
    5.0521    2.1953   -0.1027 O   0  0  0  0  0  0  0  0  0  0  0  0
    6.7715    0.3258    0.5983 O   0  0  0  0  0  0  0  0  0  0  0  0
   -5.5119    0.6130    1.5386 O   0  0  0  0  0  0  0  0  0  0  0  0
   -4.5026    2.3761    0.0201 O   0  0  0  0  0  0  0  0  0  0  0  0
   -6.5366    0.9510   -0.8600 O   0  0  0  0  0  0  0  0  0  0  0  0
    0.4912   -0.5564   -0.2441 C   0  0  1  0  0  0  0  0  0  0  0  0
    1.8655   -0.7460    0.4245 C   0  0  1  0  0  0  0  0  0  0  0  0
   -0.6609   -1.3804    0.3511 C   0  0  1  0  0  0  0  0  0  0  0  0
    2.9459    0.1038   -0.2451 C   0  0  0  0  0  0  0  0  0  0  0  0
   -2.0178   -1.1989   -0.3270 C   0  0  0  0  0  0  0  0  0  0  0  0
   -2.9449   -0.1491    0.2550 C   0  0  0  0  0  0  0  0  0  0  0  0
    0.5937   -0.8565   -1.2962 H   0  0  0  0  0  0  0  0  0  0  0  0
    2.1636   -1.7997    0.4044 H   0  0  0  0  0  0  0  0  0  0  0  0
   -0.7937   -1.1375    1.4112 H   0  0  0  0  0  0  0  0  0  0  0  0
    2.7256    1.1703   -0.1397 H   0  0  0  0  0  0  0  0  0  0  0  0
    3.0253   -0.1485   -1.3068 H   0  0  0  0  0  0  0  0  0  0  0  0
   -3.1576   -0.4184    1.2933 H   0  0  0  0  0  0  0  0  0  0  0  0
   -2.4472    0.8224    0.2119 H   0  0  0  0  0  0  0  0  0  0  0  0
    0.6911    1.2594   -0.9463 H   0  0  0  0  0  0  0  0  0  0  0  0
    1.4868    0.5554    1.8353 H   0  0  0  0  0  0  0  0  0  0  0  0
   -0.1479   -2.9750   -0.6571 H   0  0  0  0  0  0  0  0  0  0  0  0
    6.2715    0.5762   -2.2551 H   0  0  0  0  0  0  0  0  0  0  0  0
    5.7134    2.8832   -0.3299 H   0  0  0  0  0  0  0  0  0  0  0  0
   -6.2307    1.0653    2.0293 H   0  0  0  0  0  0  0  0  0  0  0  0
   -5.0084    3.1961    0.2043 H   0  0  0  0  0  0  0  0  0  0  0  0
  1  6  1  0  0  0  0
  1  9  1  0  0  0  0
  1 10  1  0  0  0  0
  1 11  2  0  0  0  0
  2  7  1  0  0  0  0
  2 12  1  0  0  0  0
  2 13  1  0  0  0  0
  2 14  2  0  0  0  0
  3 15  1  0  0  0  0
  3 28  1  0  0  0  0
  4 16  1  0  0  0  0
  4 29  1  0  0  0  0
  5 17  1  0  0  0  0
  5 30  1  0  0  0  0
  6 18  1  0  0  0  0
  7 20  1  0  0  0  0
  8 19  2  0  0  0  0
  9 31  1  0  0  0  0
 10 32  1  0  0  0  0
 12 33  1  0  0  0  0
 13 34  1  0  0  0  0
 15 16  1  0  0  0  0
 15 17  1  0  0  0  0
 15 21  1  0  0  0  0
 16 18  1  0  0  0  0
 16 22  1  0  0  0  0
 17 19  1  0  0  0  0
 17 23  1  0  0  0  0
 18 24  1  0  0  0  0
 18 25  1  0  0  0  0
 19 20  1  0  0  0  0
 20 26  1  0  0  0  0
 20 27  1  0  0  0  0
M  END
> <PUBCHEM_COMPOUND_CID>
189150

> <PUBCHEM_CONFORMER_RMSD>
1

> <PUBCHEM_CONFORMER_DIVERSEORDER>
2
32
87
122
188
168
5
3
75
180
207
93
186
19
232
102
6
217
79
28
36
135
86
18
15
12
181
100
206
69
153
60
42
81
133
26
44
80
191
89
108
184
161
120
52
159
167
84
65
149
13
145
147
189
63
50
124
123
110
1
241
53
132
143
179
121
92
24
178
62
17
109
201
134
106
31
95
164
119
242
156
47
230
35
8
96
58
67
162
141
150
240
239
88
247
94
103
38
202
27
33
146
182
23
151
185
220
72
127
248
71
48
20
74
210
130
41
196
39
203
10
129
37
4
176
154
91
16
170
51
9
194
213
22
83
68
169
111
148
34
21
175
222
142
114
7
45
212
249
221
158
59
29
78
137
54
97
214
160
76
237
157
82
192
165
235
224
204
198
99
49
77
140
197
46
138
215
105
171
11
56
199
225
177
172
245
211
131
98
64
243
43
55
66
117
233
40
57
101
61
208
218
112
70
226
246
30
116
244
200
174
227
205
144
183
73
113
166
139
195
136
173
193
163
228
126
234
229
187
115
236
14
216
231
152
104
219
190
209
90
155
238
223
85
125
118
25
128
107

> <PUBCHEM_MMFF94_PARTIAL_CHARGES>
27
1 1.51
10 -0.77
11 -0.7
12 -0.77
13 -0.77
14 -0.7
15 0.28
16 0.28
17 0.34
18 0.28
19 0.45
2 1.51
20 0.34
28 0.4
29 0.4
3 -0.68
30 0.4
31 0.5
32 0.5
33 0.5
34 0.5
4 -0.68
5 -0.68
6 -0.55
7 -0.55
8 -0.57
9 -0.77

> <PUBCHEM_EFFECTIVE_ROTOR_COUNT>
9

> <PUBCHEM_PHARMACOPHORE_FEATURES>
15
1 10 acceptor
1 11 acceptor
1 12 acceptor
1 13 acceptor
1 14 acceptor
1 3 acceptor
1 3 donor
1 4 acceptor
1 4 donor
1 5 acceptor
1 5 donor
1 8 acceptor
1 9 acceptor
4 1 9 10 11 anion
4 2 12 13 14 anion

> <PUBCHEM_HEAVY_ATOM_COUNT>
20

> <PUBCHEM_ATOM_DEF_STEREO_COUNT>
3

> <PUBCHEM_ATOM_UDEF_STEREO_COUNT>
0

> <PUBCHEM_BOND_DEF_STEREO_COUNT>
0

> <PUBCHEM_BOND_UDEF_STEREO_COUNT>
0

> <PUBCHEM_ISOTOPIC_ATOM_COUNT>
0

> <PUBCHEM_COMPONENT_COUNT>
1

> <PUBCHEM_CACTVS_TAUTO_COUNT>
5

> <PUBCHEM_CONFORMER_ID>
0002E2DE00000002

> <PUBCHEM_MMFF94_ENERGY>
-34.0262

> <PUBCHEM_FEATURE_SELFOVERLAP>
76.216

> <PUBCHEM_SHAPE_FINGERPRINT>
10014705 185 18343022237172469238
100836 57 18408325483883348151
10354089 29 17603307050712320644
10730089 173 18341612603009751633
11089746 13 18412819209692199980
117890 112 18341611538453642804
12166972 35 12247672790224426346
12236239 1 18040433308846217026
12507557 5 17748832904350213565
12596602 18 17095525084857246785
12670543 26 16630532808170715022
13668630 136 12175626183029313220
1420 363 11169912779753425000
14251732 16 7997964670621990414
14251752 14 18272368642522031010
14251764 75 17625270706549459897
15048467 5 18411698798906419040
15183329 4 17418099780248926694
15501527 16 18410576201407427409
15716309 27 12684812203726598617
17834072 8 17203605995182024898
17959699 21 18339080492683033232
18222031 100 12751246908949892634
19784866 240 11312055474239595683
200 152 12823300099813093526
20281389 69 18335417954482939921
20621476 66 18412267246059503920
20645477 56 18343864420419745159
20681677 155 18409726296326223530
21150785 3 13758069723457411320
22079108 93 16587746468653799296
22224240 67 16008750212915052139
23198884 109 16774081761075671913
23402539 116 18341888628152745438
23402655 69 18059855064695594110
23559900 14 16845565448424638026
2838139 119 18341888593344977837
293599 30 18408604764126502302
300161 21 18201996642880573350
3009799 131 15195565697804350938
312425 54 14996563941695452657
4340502 62 15863789478421511746
5104073 3 17604703529960280912
59682541 52 16558470768810098389
59755656 520 18040430010053436331
7062679 6 18408606950323053845
7495541 125 12107792921402727326

> <PUBCHEM_SHAPE_MULTIPOLES>
348.86
16.22
1.92
1.1
3.82
0.22
-0.08
-10.29
0.99
-1.12
0.12
0.09
0.08
-0.49

> <PUBCHEM_SHAPE_SELFOVERLAP>
650.834

> <PUBCHEM_SHAPE_VOLUME>
217.8

> <PUBCHEM_COORDINATE_TYPE>
2
5
10