193670
  -OEChem-05042113263D

 44 44  0     1  0  0  0  0  0999 V2000
   -4.2969    1.1692   -1.7487 O   0  0  0  0  0  0  0  0  0  0  0  0
   -4.3013    1.6561    0.9318 O   0  0  0  0  0  0  0  0  0  0  0  0
   -6.0232   -0.3161   -0.0697 O   0  0  0  0  0  0  0  0  0  0  0  0
   -1.9002    2.6862    0.5183 O   0  0  0  0  0  0  0  0  0  0  0  0
   -5.3912   -3.2617   -0.2484 O   0  0  0  0  0  0  0  0  0  0  0  0
    2.0859   -1.9120    0.4077 O   0  0  0  0  0  0  0  0  0  0  0  0
    1.1734   -0.8105    2.1683 O   0  0  0  0  0  0  0  0  0  0  0  0
    0.4079    1.1945    0.4613 N   0  0  0  0  0  0  0  0  0  0  0  0
   -3.8000    0.1300   -0.8951 C   0  0  1  0  0  0  0  0  0  0  0  0
   -3.3316    0.7493    0.4289 C   0  0  1  0  0  0  0  0  0  0  0  0
   -4.9138   -0.9233   -0.7427 C   0  0  1  0  0  0  0  0  0  0  0  0
    1.5761    0.4044    0.0960 C   0  0  1  0  0  0  0  0  0  0  0  0
   -0.8037    0.6315   -0.1176 C   0  0  0  0  0  0  0  0  0  0  0  0
   -1.9938    1.4781    0.2968 C   0  0  0  0  0  0  0  0  0  0  0  0
    2.8465    1.2563    0.2439 C   0  0  0  0  0  0  0  0  0  0  0  0
   -4.5142   -2.1778    0.0331 C   0  0  0  0  0  0  0  0  0  0  0  0
    4.1045    0.5034   -0.1239 C   0  0  0  0  0  0  0  0  0  0  0  0
    1.5883   -0.8041    1.0162 C   0  0  0  0  0  0  0  0  0  0  0  0
    4.7987   -0.2131    0.8510 C   0  0  0  0  0  0  0  0  0  0  0  0
    4.5710    0.5247   -1.4384 C   0  0  0  0  0  0  0  0  0  0  0  0
    5.9595   -0.9080    0.5116 C   0  0  0  0  0  0  0  0  0  0  0  0
    5.7319   -0.1704   -1.7777 C   0  0  0  0  0  0  0  0  0  0  0  0
    6.4261   -0.8868   -0.8026 C   0  0  0  0  0  0  0  0  0  0  0  0
   -2.9656   -0.3447   -1.4226 H   0  0  0  0  0  0  0  0  0  0  0  0
   -3.1815   -0.0211    1.1922 H   0  0  0  0  0  0  0  0  0  0  0  0
   -5.2829   -1.2085   -1.7355 H   0  0  0  0  0  0  0  0  0  0  0  0
    1.4956    0.0620   -0.9443 H   0  0  0  0  0  0  0  0  0  0  0  0
   -0.9683   -0.3887    0.2449 H   0  0  0  0  0  0  0  0  0  0  0  0
   -0.7626    0.6252   -1.2122 H   0  0  0  0  0  0  0  0  0  0  0  0
    2.9450    1.6204    1.2762 H   0  0  0  0  0  0  0  0  0  0  0  0
    2.7756    2.1559   -0.3824 H   0  0  0  0  0  0  0  0  0  0  0  0
    0.5190    2.1477    0.1144 H   0  0  0  0  0  0  0  0  0  0  0  0
   -3.5065   -2.4960   -0.2528 H   0  0  0  0  0  0  0  0  0  0  0  0
   -4.5426   -2.0009    1.1131 H   0  0  0  0  0  0  0  0  0  0  0  0
   -3.5665    1.7911   -1.9077 H   0  0  0  0  0  0  0  0  0  0  0  0
   -4.4876    2.3081    0.2348 H   0  0  0  0  0  0  0  0  0  0  0  0
   -6.2731    0.4751   -0.5770 H   0  0  0  0  0  0  0  0  0  0  0  0
    4.4491   -0.2356    1.8796 H   0  0  0  0  0  0  0  0  0  0  0  0
    4.0375    1.0774   -2.2070 H   0  0  0  0  0  0  0  0  0  0  0  0
   -5.0788   -4.0238    0.2685 H   0  0  0  0  0  0  0  0  0  0  0  0
    6.5004   -1.4653    1.2708 H   0  0  0  0  0  0  0  0  0  0  0  0
    6.0949   -0.1544   -2.8012 H   0  0  0  0  0  0  0  0  0  0  0  0
    7.3298   -1.4280   -1.0669 H   0  0  0  0  0  0  0  0  0  0  0  0
    2.0788   -2.6908    1.0041 H   0  0  0  0  0  0  0  0  0  0  0  0
  1  9  1  0  0  0  0
  1 35  1  0  0  0  0
  2 10  1  0  0  0  0
  2 36  1  0  0  0  0
  3 11  1  0  0  0  0
  3 37  1  0  0  0  0
  4 14  2  0  0  0  0
  5 16  1  0  0  0  0
  5 40  1  0  0  0  0
  6 18  1  0  0  0  0
  6 44  1  0  0  0  0
  7 18  2  0  0  0  0
  8 12  1  0  0  0  0
  8 13  1  0  0  0  0
  8 32  1  0  0  0  0
  9 10  1  0  0  0  0
  9 11  1  0  0  0  0
  9 24  1  0  0  0  0
 10 14  1  0  0  0  0
 10 25  1  0  0  0  0
 11 16  1  0  0  0  0
 11 26  1  0  0  0  0
 12 15  1  0  0  0  0
 12 18  1  0  0  0  0
 12 27  1  0  0  0  0
 13 14  1  0  0  0  0
 13 28  1  0  0  0  0
 13 29  1  0  0  0  0
 15 17  1  0  0  0  0
 15 30  1  0  0  0  0
 15 31  1  0  0  0  0
 16 33  1  0  0  0  0
 16 34  1  0  0  0  0
 17 19  2  0  0  0  0
 17 20  1  0  0  0  0
 19 21  1  0  0  0  0
 19 38  1  0  0  0  0
 20 22  2  0  0  0  0
 20 39  1  0  0  0  0
 21 23  2  0  0  0  0
 21 41  1  0  0  0  0
 22 23  1  0  0  0  0
 22 42  1  0  0  0  0
 23 43  1  0  0  0  0
M  END
> <PUBCHEM_COMPOUND_CID>
193670

> <PUBCHEM_CONFORMER_RMSD>
1

> <PUBCHEM_CONFORMER_DIVERSEORDER>
1
44
30
108
37
104
78
26
18
52
75
76
103
84
47
20
85
29
36
5
54
80
42
50
4
62
102
88
73
101
83
86
97
43
48
21
38
94
2
34
32
82
111
71
77
89
63
9
65
68
39
27
46
87
19
13
35
105
96
100
14
31
59
99
12
112
109
98
95
6
33
110
67
61
91
41
17
7
11
45
3
8
58
49
90
51
81
70
106
24
40
74
64
69
92
79
23
113
56
57
72
25
22
28
60
16
107
53
93
66
10
15
55

> <PUBCHEM_MMFF94_PARTIAL_CHARGES>
34
1 -0.68
10 0.34
11 0.28
12 0.33
13 0.33
14 0.45
15 0.14
16 0.28
17 -0.14
18 0.66
19 -0.15
2 -0.68
20 -0.15
21 -0.15
22 -0.15
23 -0.15
3 -0.68
32 0.36
35 0.4
36 0.4
37 0.4
38 0.15
39 0.15
4 -0.57
40 0.4
41 0.15
42 0.15
43 0.15
44 0.5
5 -0.68
6 -0.65
7 -0.57
8 -0.9
9 0.28

> <PUBCHEM_EFFECTIVE_ROTOR_COUNT>
10

> <PUBCHEM_PHARMACOPHORE_FEATURES>
15
1 1 acceptor
1 1 donor
1 2 acceptor
1 2 donor
1 3 acceptor
1 3 donor
1 4 acceptor
1 5 acceptor
1 5 donor
1 6 acceptor
1 7 acceptor
1 8 cation
1 8 donor
3 6 7 18 anion
6 17 19 20 21 22 23 rings

> <PUBCHEM_HEAVY_ATOM_COUNT>
23

> <PUBCHEM_ATOM_DEF_STEREO_COUNT>
4

> <PUBCHEM_ATOM_UDEF_STEREO_COUNT>
0

> <PUBCHEM_BOND_DEF_STEREO_COUNT>
0

> <PUBCHEM_BOND_UDEF_STEREO_COUNT>
0

> <PUBCHEM_ISOTOPIC_ATOM_COUNT>
0

> <PUBCHEM_COMPONENT_COUNT>
1

> <PUBCHEM_CACTVS_TAUTO_COUNT>
10

> <PUBCHEM_CONFORMER_ID>
0002F48600000001

> <PUBCHEM_MMFF94_ENERGY>
44.4065

> <PUBCHEM_FEATURE_SELFOVERLAP>
76.221

> <PUBCHEM_SHAPE_FINGERPRINT>
11056379 131 18341898437805730473
11315621 246 18410859849685030671
11545043 162 17346877836512460841
117890 112 7853575699507541908
12166972 35 17895196640026527940
12236239 1 18334858290696458300
13631057 29 18336261336332247883
13782708 43 17489868249947224278
13862211 1 18334854979540151016
1420 363 18131632287679178252
14251757 5 18262238953348897907
14251764 18 11743831465183593673
14251764 30 17703509994985535495
14466204 15 10231765478343581095
14528608 73 17385441029461161660
14931854 50 18041546062391735007
15142383 8 14117525302898790954
15183329 4 18411986853710048398
15527383 91 12319731466852257106
15537594 2 18333167276415407115
17349148 13 17894917312855049160
17834072 33 18259982677914623436
17844677 252 16343704326651199888
18222031 100 18113051645388354804
18927931 339 18202285805837973861
20281389 69 7997974565577644652
20621476 21 17703800231484416870
21054139 6 18259981583109868074
21150785 3 18187652431580592764
21267235 1 18411985784563417433
21623969 137 16056884619865219316
21709351 56 17749107781376235276
220451 1 18260552186399241424
22393880 68 18187915192799355365
23035841 295 18411702088983184587
23402539 116 18342176631142538384
23559900 14 18268699671189448665
2838139 119 15574710292394369164
329604 57 18336829787532055371
33382 64 16916792842870118334
4325135 7 18040153998163888526
4340502 62 15769483263192079902
5104073 3 17918275376277203280
531348 171 17822845360693744181
7226269 152 11530478917673905031
7495541 125 17132108061643466040

> <PUBCHEM_SHAPE_MULTIPOLES>
427.26
16.81
2.19
1.37
1.62
0.81
0.13
6.72
5.1
-3.73
-0.23
0.96
0.02
-0.58

> <PUBCHEM_SHAPE_SELFOVERLAP>
865.911

> <PUBCHEM_SHAPE_VOLUME>
246.7

> <PUBCHEM_COORDINATE_TYPE>
2
5
10