21601245
  -OEChem-05042113263D

 22 21  0     1  0  0  0  0  0999 V2000
   -2.2769   -1.1928    0.2033 F   0  0  0  0  0  0  0  0  0  0  0  0
   -3.8745    1.0813   -0.4335 F   0  0  0  0  0  0  0  0  0  0  0  0
   -0.0169   -0.5415    1.7813 O   0  0  0  0  0  0  0  0  0  0  0  0
    0.0227   -1.5621   -0.8920 O   0  0  0  0  0  0  0  0  0  0  0  0
    2.5874   -1.1344   -0.3796 O   0  0  0  0  0  0  0  0  0  0  0  0
    3.8399    1.1696    0.1177 O   0  0  0  0  0  0  0  0  0  0  0  0
   -0.4488    0.2358    0.6624 C   0  0  1  0  0  0  0  0  0  0  0  0
    0.3610   -0.2243   -0.5571 C   0  0  1  0  0  0  0  0  0  0  0  0
   -1.9685    0.1030    0.4966 C   0  0  1  0  0  0  0  0  0  0  0  0
    1.8667   -0.1374   -0.3251 C   0  0  0  0  0  0  0  0  0  0  0  0
   -2.5308    0.9623   -0.6217 C   0  0  0  0  0  0  0  0  0  0  0  0
    2.4389    1.2405   -0.0521 C   0  0  0  0  0  0  0  0  0  0  0  0
   -0.2121    1.2803    0.8930 H   0  0  0  0  0  0  0  0  0  0  0  0
    0.1312    0.3936   -1.4312 H   0  0  0  0  0  0  0  0  0  0  0  0
   -2.4733    0.3317    1.4410 H   0  0  0  0  0  0  0  0  0  0  0  0
   -2.3741    0.5084   -1.6038 H   0  0  0  0  0  0  0  0  0  0  0  0
   -2.1130    1.9726   -0.6085 H   0  0  0  0  0  0  0  0  0  0  0  0
   -0.5025   -0.2255    2.5622 H   0  0  0  0  0  0  0  0  0  0  0  0
    2.2158    1.8928   -0.9008 H   0  0  0  0  0  0  0  0  0  0  0  0
    2.0066    1.6455    0.8652 H   0  0  0  0  0  0  0  0  0  0  0  0
    0.1507   -2.1080   -0.0974 H   0  0  0  0  0  0  0  0  0  0  0  0
    4.1581    2.0768    0.2636 H   0  0  0  0  0  0  0  0  0  0  0  0
  1  9  1  0  0  0  0
  2 11  1  0  0  0  0
  3  7  1  0  0  0  0
  3 18  1  0  0  0  0
  4  8  1  0  0  0  0
  4 21  1  0  0  0  0
  5 10  2  0  0  0  0
  6 12  1  0  0  0  0
  6 22  1  0  0  0  0
  7  8  1  0  0  0  0
  7  9  1  0  0  0  0
  7 13  1  0  0  0  0
  8 10  1  0  0  0  0
  8 14  1  0  0  0  0
  9 11  1  0  0  0  0
  9 15  1  0  0  0  0
 10 12  1  0  0  0  0
 11 16  1  0  0  0  0
 11 17  1  0  0  0  0
 12 19  1  0  0  0  0
 12 20  1  0  0  0  0
M  END
> <PUBCHEM_COMPOUND_CID>
21601245

> <PUBCHEM_CONFORMER_RMSD>
0.8

> <PUBCHEM_CONFORMER_DIVERSEORDER>
1
12
61
3
73
75
86
13
60
28
59
10
79
6
50
55
16
72
94
78
17
67
9
51
64
20
48
87
5
45
81
31
36
38
68
49
4
15
41
66
56
83
35
91
74
34
8
18
52
46
93
42
37
77
69
57
2
65
29
27
33
25
19
90
70
47
63
30
85
84
53
22
95
43
23
89
76
92
39
14
32
11
24
7
62
44
54
40
21
82
26
58
80
71
88

> <PUBCHEM_MMFF94_PARTIAL_CHARGES>
15
1 -0.34
10 0.45
11 0.34
12 0.34
18 0.4
2 -0.34
21 0.4
22 0.4
3 -0.68
4 -0.68
5 -0.57
6 -0.68
7 0.28
8 0.34
9 0.34

> <PUBCHEM_EFFECTIVE_ROTOR_COUNT>
5

> <PUBCHEM_PHARMACOPHORE_FEATURES>
7
1 3 acceptor
1 3 donor
1 4 acceptor
1 4 donor
1 5 acceptor
1 6 acceptor
1 6 donor

> <PUBCHEM_HEAVY_ATOM_COUNT>
12

> <PUBCHEM_ATOM_DEF_STEREO_COUNT>
3

> <PUBCHEM_ATOM_UDEF_STEREO_COUNT>
0

> <PUBCHEM_BOND_DEF_STEREO_COUNT>
0

> <PUBCHEM_BOND_UDEF_STEREO_COUNT>
0

> <PUBCHEM_ISOTOPIC_ATOM_COUNT>
0

> <PUBCHEM_COMPONENT_COUNT>
1

> <PUBCHEM_CACTVS_TAUTO_COUNT>
8

> <PUBCHEM_CONFORMER_ID>
01499BDD00000001

> <PUBCHEM_MMFF94_ENERGY>
10.098

> <PUBCHEM_FEATURE_SELFOVERLAP>
35.545

> <PUBCHEM_SHAPE_FINGERPRINT>
12716758 59 18186807958841395851
12897270 3 18273501151977301861
12932764 1 18261690206614258866
14128692 85 12535339138512187833
14325111 11 18413109471908059372
14390081 3 18113899334245386941
14993402 34 14836118862505033029
15219456 202 18409736153128026315
15775835 57 18410857676479246084
16945 1 18196945374202505618
18186145 218 18131363989572525868
20645464 45 17603587460600484472
20653085 51 18261404333659543865
20671657 53 17625548882273303526
21293036 1 16988840605142375397
228727 97 16487263144446896371
23402539 116 17969215814928192347
23402655 69 18130217160949829389
23552423 10 16628860369269765239
305870 269 17240752952476557073
3248919 1 17561091262919381318
369184 2 18335709355134151603
4047638 21 18335705996860259029
5084963 1 18041575679599114524
528886 8 18272646848611859057
8030462 33 16845298211121718170

> <PUBCHEM_SHAPE_MULTIPOLES>
208.93
5.33
1.36
1.01
0.03
0.1
-0.33
-2.37
0.68
0.22
0.21
-0.17
0.17
0.42

> <PUBCHEM_SHAPE_SELFOVERLAP>
401.43

> <PUBCHEM_SHAPE_VOLUME>
126.6

> <PUBCHEM_COORDINATE_TYPE>
2
5
10