3063084
  -OEChem-05042113263D

 41 40  0     1  0  0  0  0  0999 V2000
    2.9666   -0.7540   -2.0385 O   0  0  0  0  0  0  0  0  0  0  0  0
    2.7444   -2.1543    0.2881 O   0  0  0  0  0  0  0  0  0  0  0  0
    4.9142   -0.4056   -0.0158 O   0  0  0  0  0  0  0  0  0  0  0  0
    0.1911   -2.3882   -0.3621 O   0  0  0  0  0  0  0  0  0  0  0  0
   -2.0934    2.5251   -1.1907 O   0  0  0  0  0  0  0  0  0  0  0  0
    4.9830    2.4700    0.8980 O   0  0  0  0  0  0  0  0  0  0  0  0
   -2.4352    2.2667    1.0331 O   0  0  0  0  0  0  0  0  0  0  0  0
   -1.5468   -1.6610    1.9708 O   0  0  0  0  0  0  0  0  0  0  0  0
   -1.7087   -0.4882    0.2179 N   0  0  0  0  0  0  0  0  0  0  0  0
   -1.8540   -0.5475    1.5286 N   0  0  0  0  0  0  0  0  0  0  0  0
   -2.7246    0.3426   -0.4511 C   0  0  1  0  0  0  0  0  0  0  0  0
   -4.1521   -0.1401   -0.0963 C   0  0  0  0  0  0  0  0  0  0  0  0
    2.6853   -0.0044   -0.8490 C   0  0  1  0  0  0  0  0  0  0  0  0
    2.0310   -0.9312    0.1850 C   0  0  1  0  0  0  0  0  0  0  0  0
   -0.3766   -0.0493   -0.1732 C   0  0  0  0  0  0  0  0  0  0  0  0
    4.0035    0.6392   -0.3784 C   0  0  1  0  0  0  0  0  0  0  0  0
    0.5687   -1.2368   -0.1409 C   0  0  0  0  0  0  0  0  0  0  0  0
   -4.4342   -1.6127   -0.4151 C   0  0  0  0  0  0  0  0  0  0  0  0
   -5.2231    0.7541   -0.7301 C   0  0  0  0  0  0  0  0  0  0  0  0
   -2.4087    1.7867   -0.0913 C   0  0  0  0  0  0  0  0  0  0  0  0
    3.8696    1.5892    0.8110 C   0  0  0  0  0  0  0  0  0  0  0  0
   -2.6092    0.2243   -1.5380 H   0  0  0  0  0  0  0  0  0  0  0  0
   -4.3055   -0.0208    0.9859 H   0  0  0  0  0  0  0  0  0  0  0  0
    2.0059    0.8055   -1.1356 H   0  0  0  0  0  0  0  0  0  0  0  0
    2.0283   -0.4719    1.1790 H   0  0  0  0  0  0  0  0  0  0  0  0
   -0.3452    0.2975   -1.2147 H   0  0  0  0  0  0  0  0  0  0  0  0
    0.0165    0.7535    0.4648 H   0  0  0  0  0  0  0  0  0  0  0  0
    4.4703    1.1677   -1.2186 H   0  0  0  0  0  0  0  0  0  0  0  0
   -4.3063   -1.8088   -1.4850 H   0  0  0  0  0  0  0  0  0  0  0  0
   -5.4618   -1.8793   -0.1448 H   0  0  0  0  0  0  0  0  0  0  0  0
   -3.7692   -2.2855    0.1340 H   0  0  0  0  0  0  0  0  0  0  0  0
   -5.1546    0.7316   -1.8229 H   0  0  0  0  0  0  0  0  0  0  0  0
   -6.2277    0.4205   -0.4480 H   0  0  0  0  0  0  0  0  0  0  0  0
   -5.1213    1.7939   -0.4037 H   0  0  0  0  0  0  0  0  0  0  0  0
    3.8103    1.0363    1.7541 H   0  0  0  0  0  0  0  0  0  0  0  0
    2.9749    2.2105    0.7016 H   0  0  0  0  0  0  0  0  0  0  0  0
    2.1205   -1.0924   -2.3775 H   0  0  0  0  0  0  0  0  0  0  0  0
    2.8056   -2.5381   -0.6034 H   0  0  0  0  0  0  0  0  0  0  0  0
    4.9974   -0.9978   -0.7828 H   0  0  0  0  0  0  0  0  0  0  0  0
   -1.8946    3.4572   -0.9588 H   0  0  0  0  0  0  0  0  0  0  0  0
    4.8319    3.0467    1.6662 H   0  0  0  0  0  0  0  0  0  0  0  0
  1 13  1  0  0  0  0
  1 37  1  0  0  0  0
  2 14  1  0  0  0  0
  2 38  1  0  0  0  0
  3 16  1  0  0  0  0
  3 39  1  0  0  0  0
  4 17  2  0  0  0  0
  5 20  1  0  0  0  0
  5 40  1  0  0  0  0
  6 21  1  0  0  0  0
  6 41  1  0  0  0  0
  7 20  2  0  0  0  0
  8 10  2  0  0  0  0
  9 10  1  0  0  0  0
  9 11  1  0  0  0  0
  9 15  1  0  0  0  0
 11 12  1  0  0  0  0
 11 20  1  0  0  0  0
 11 22  1  0  0  0  0
 12 18  1  0  0  0  0
 12 19  1  0  0  0  0
 12 23  1  0  0  0  0
 13 14  1  0  0  0  0
 13 16  1  0  0  0  0
 13 24  1  0  0  0  0
 14 17  1  0  0  0  0
 14 25  1  0  0  0  0
 15 17  1  0  0  0  0
 15 26  1  0  0  0  0
 15 27  1  0  0  0  0
 16 21  1  0  0  0  0
 16 28  1  0  0  0  0
 18 29  1  0  0  0  0
 18 30  1  0  0  0  0
 18 31  1  0  0  0  0
 19 32  1  0  0  0  0
 19 33  1  0  0  0  0
 19 34  1  0  0  0  0
 21 35  1  0  0  0  0
 21 36  1  0  0  0  0
M  END
> <PUBCHEM_COMPOUND_CID>
3063084

> <PUBCHEM_CONFORMER_RMSD>
1

> <PUBCHEM_CONFORMER_DIVERSEORDER>
1
95
41
22
70
39
48
49
33
32
7
13
71
67
78
20
91
42
57
88
3
24
58
90
84
37
66
94
10
59
89
77
19
40
74
87
43
92
60
15
29
85
8
68
16
56
79
82
17
36
86
34
80
63
62
50
45
73
52
64
25
26
11
93
31
4
30
47
55
14
35
83
76
72
23
18
69
6
44
12
21
81
54
5
61
65
28
46
38
75
2
27
53
9
51

> <PUBCHEM_MMFF94_PARTIAL_CHARGES>
23
1 -0.68
10 -0.01
11 0.33
13 0.28
14 0.34
15 0.33
16 0.28
17 0.45
2 -0.68
20 0.66
21 0.28
3 -0.68
37 0.4
38 0.4
39 0.4
4 -0.57
40 0.5
41 0.4
5 -0.65
6 -0.68
7 -0.57
8 -0.16
9 -0.36

> <PUBCHEM_EFFECTIVE_ROTOR_COUNT>
10

> <PUBCHEM_PHARMACOPHORE_FEATURES>
13
1 1 acceptor
1 1 donor
1 2 acceptor
1 2 donor
1 3 acceptor
1 3 donor
1 4 acceptor
1 5 acceptor
1 6 acceptor
1 6 donor
1 7 acceptor
3 12 18 19 hydrophobe
3 5 7 20 anion

> <PUBCHEM_HEAVY_ATOM_COUNT>
21

> <PUBCHEM_ATOM_DEF_STEREO_COUNT>
4

> <PUBCHEM_ATOM_UDEF_STEREO_COUNT>
0

> <PUBCHEM_BOND_DEF_STEREO_COUNT>
0

> <PUBCHEM_BOND_UDEF_STEREO_COUNT>
0

> <PUBCHEM_ISOTOPIC_ATOM_COUNT>
0

> <PUBCHEM_COMPONENT_COUNT>
1

> <PUBCHEM_CACTVS_TAUTO_COUNT>
10

> <PUBCHEM_CONFORMER_ID>
002EBD2C00000001

> <PUBCHEM_MMFF94_ENERGY>
48.8091

> <PUBCHEM_FEATURE_SELFOVERLAP>
66.071

> <PUBCHEM_SHAPE_FINGERPRINT>
10366900 7 18334020492868936192
10498660 4 18411981364498919877
11759241 127 18272649086247590325
12403260 363 18341045246815192226
12596602 18 16660924512776305224
12670546 177 17703788145435688262
128620 24 17775005691088726455
12916754 54 18130512933345056599
13081056 2 18413951693915756788
13402501 40 18340199786735379048
13533116 47 17895747405236845234
13551218 46 8790884107948121629
14251764 38 18412266142617380072
14790565 3 17908986501105941193
17349148 13 17675923213631481782
1813 80 13326851140993840859
18186145 218 17845951640749270446
192875 21 17749112209571790213
21524375 3 18408606933412320286
23227448 37 18057036028735580420
23352939 185 17489868258980244825
23402539 116 18113333116043399703
23557571 272 18042425649533057507
23559900 14 17822578218065650378
351380 180 18408601474487476188
3524813 1 18341044198901785496
474 4 17821736000568847367
5104073 3 18334577898051286091
5281201 14 17560529404346635028
58051976 378 18201718418772210551
67856867 119 18336535024042725138
9709674 26 18261963954939919018
9981440 41 18113898269056821979

> <PUBCHEM_SHAPE_MULTIPOLES>
375.25
10.48
2.47
1.26
2.7
0.67
0.11
3.25
-0.81
0.27
0.3
0.11
-0.1
1.07

> <PUBCHEM_SHAPE_SELFOVERLAP>
735.153

> <PUBCHEM_SHAPE_VOLUME>
225.1

> <PUBCHEM_COORDINATE_TYPE>
2
5
10