449225
  -OEChem-05042113263D

 27 26  0     1  0  0  0  0  0999 V2000
   -0.4061    1.6742    0.3093 O   0  0  0  0  0  0  0  0  0  0  0  0
    0.5921   -0.6859    1.6150 O   0  0  0  0  0  0  0  0  0  0  0  0
    2.1753    0.1843   -1.5821 O   0  0  0  0  0  0  0  0  0  0  0  0
    4.4329   -0.2663   -0.0181 O   0  0  0  0  0  0  0  0  0  0  0  0
   -2.4620    0.1039    1.1400 O   0  0  0  0  0  0  0  0  0  0  0  0
   -3.8370   -1.4866   -0.4975 O   0  0  0  0  0  0  0  0  0  0  0  0
    0.6672   -0.4683    0.2090 C   0  0  1  0  0  0  0  0  0  0  0  0
   -0.5218    0.3796   -0.2680 C   0  0  1  0  0  0  0  0  0  0  0  0
    2.0595    0.0741   -0.1638 C   0  0  1  0  0  0  0  0  0  0  0  0
    3.1784   -0.8430    0.3309 C   0  0  0  0  0  0  0  0  0  0  0  0
   -1.9037   -0.1731    0.0773 C   0  0  0  0  0  0  0  0  0  0  0  0
   -2.5749   -1.0509   -0.9614 C   0  0  0  0  0  0  0  0  0  0  0  0
   -1.3999    2.5581   -0.1907 C   0  0  0  0  0  0  0  0  0  0  0  0
    0.5439   -1.4536   -0.2616 H   0  0  0  0  0  0  0  0  0  0  0  0
   -0.4637    0.4846   -1.3590 H   0  0  0  0  0  0  0  0  0  0  0  0
    2.2107    1.0751    0.2555 H   0  0  0  0  0  0  0  0  0  0  0  0
    3.1584   -0.9605    1.4178 H   0  0  0  0  0  0  0  0  0  0  0  0
    3.1206   -1.8277   -0.1444 H   0  0  0  0  0  0  0  0  0  0  0  0
    1.0900   -1.4950    1.8200 H   0  0  0  0  0  0  0  0  0  0  0  0
   -2.7237   -0.4709   -1.8759 H   0  0  0  0  0  0  0  0  0  0  0  0
   -1.9483   -1.9218   -1.1713 H   0  0  0  0  0  0  0  0  0  0  0  0
    2.0313   -0.6988   -1.9632 H   0  0  0  0  0  0  0  0  0  0  0  0
   -2.3837    2.3668    0.2443 H   0  0  0  0  0  0  0  0  0  0  0  0
   -1.4521    2.5269   -1.2841 H   0  0  0  0  0  0  0  0  0  0  0  0
   -1.1135    3.5735    0.0997 H   0  0  0  0  0  0  0  0  0  0  0  0
    5.1235   -0.8711    0.3025 H   0  0  0  0  0  0  0  0  0  0  0  0
   -3.6826   -2.0658    0.2683 H   0  0  0  0  0  0  0  0  0  0  0  0
  1  8  1  0  0  0  0
  1 13  1  0  0  0  0
  2  7  1  0  0  0  0
  2 19  1  0  0  0  0
  3  9  1  0  0  0  0
  3 22  1  0  0  0  0
  4 10  1  0  0  0  0
  4 26  1  0  0  0  0
  5 11  2  0  0  0  0
  6 12  1  0  0  0  0
  6 27  1  0  0  0  0
  7  8  1  0  0  0  0
  7  9  1  0  0  0  0
  7 14  1  0  0  0  0
  8 11  1  0  0  0  0
  8 15  1  0  0  0  0
  9 10  1  0  0  0  0
  9 16  1  0  0  0  0
 10 17  1  0  0  0  0
 10 18  1  0  0  0  0
 11 12  1  0  0  0  0
 12 20  1  0  0  0  0
 12 21  1  0  0  0  0
 13 23  1  0  0  0  0
 13 24  1  0  0  0  0
 13 25  1  0  0  0  0
M  END
> <PUBCHEM_COMPOUND_CID>
449225

> <PUBCHEM_CONFORMER_RMSD>
0.6

> <PUBCHEM_CONFORMER_DIVERSEORDER>
1
117
57
162
149
141
137
35
31
135
121
152
44
157
106
124
67
105
133
29
145
148
153
32
69
4
112
110
102
158
85
10
143
122
9
115
51
139
20
109
38
136
28
65
86
72
53
159
146
15
75
93
26
151
104
43
103
123
78
18
84
27
125
68
41
147
160
94
34
116
66
108
113
100
140
82
98
5
39
74
36
13
130
81
2
87
19
89
63
155
45
119
97
99
95
156
46
132
37
3
79
128
114
7
76
120
118
30
126
131
138
96
77
144
11
80
59
90
22
14
6
83
55
50
107
88
127
21
92
24
64
12
111
129
58
49
73
150
134
47
54
40
56
154
161
17
42
25
16
52
60
61
62
33
48
71
23
101
8
91
142
70

> <PUBCHEM_MMFF94_PARTIAL_CHARGES>
17
1 -0.56
10 0.28
11 0.45
12 0.34
13 0.28
19 0.4
2 -0.68
22 0.4
26 0.4
27 0.4
3 -0.68
4 -0.68
5 -0.57
6 -0.68
7 0.28
8 0.34
9 0.28

> <PUBCHEM_EFFECTIVE_ROTOR_COUNT>
6

> <PUBCHEM_PHARMACOPHORE_FEATURES>
10
1 1 acceptor
1 2 acceptor
1 2 donor
1 3 acceptor
1 3 donor
1 4 acceptor
1 4 donor
1 5 acceptor
1 6 acceptor
1 6 donor

> <PUBCHEM_HEAVY_ATOM_COUNT>
13

> <PUBCHEM_ATOM_DEF_STEREO_COUNT>
3

> <PUBCHEM_ATOM_UDEF_STEREO_COUNT>
0

> <PUBCHEM_BOND_DEF_STEREO_COUNT>
0

> <PUBCHEM_BOND_UDEF_STEREO_COUNT>
0

> <PUBCHEM_ISOTOPIC_ATOM_COUNT>
0

> <PUBCHEM_COMPONENT_COUNT>
1

> <PUBCHEM_CACTVS_TAUTO_COUNT>
4

> <PUBCHEM_CONFORMER_ID>
0006DAC900000001

> <PUBCHEM_MMFF94_ENERGY>
26.7085

> <PUBCHEM_FEATURE_SELFOVERLAP>
50.776

> <PUBCHEM_SHAPE_FINGERPRINT>
12251169 10 13542182852942634951
12932764 1 18272090444605237458
13214271 11 15482669057246745298
16945 1 18261404355208122930
17844478 74 16415481540881208186
200 152 18113332020436394334
20361792 2 18341324600104465135
20525323 117 18262238811392651352
20671657 53 18268987760357214143
20711985 327 18201440328097638981
20711985 344 18269538478138365713
20871998 184 18131348575140512263
21061003 4 16200144404842549098
21524375 3 17612874790397058677
228727 97 18186237320622065073
23380061 127 18338792326136290484
23402539 116 18408317779128711718
23557571 272 18059859433009637004
3248919 1 17603877667440912634
449060 23 17917426583629022871
57812782 119 16226047807902958686
81228 2 18340215089724544465

> <PUBCHEM_SHAPE_MULTIPOLES>
232.32
5.88
1.7
1.1
3.23
1.26
0.04
-2.54
-0.72
-1.56
-0.13
0.04
-0.15
-0.5

> <PUBCHEM_SHAPE_SELFOVERLAP>
441.061

> <PUBCHEM_SHAPE_VOLUME>
142.8

> <PUBCHEM_COORDINATE_TYPE>
2
5
10