542369
  -OEChem-05042113263D

 27 26  0     1  0  0  0  0  0999 V2000
   -0.5395    0.3936   -1.8645 O   0  0  0  0  0  0  0  0  0  0  0  0
   -2.9930   -0.8439   -1.3115 O   0  0  0  0  0  0  0  0  0  0  0  0
   -0.4001    2.0367    0.4921 O   0  0  0  0  0  0  0  0  0  0  0  0
   -4.0992   -0.7028    1.2070 O   0  0  0  0  0  0  0  0  0  0  0  0
    3.6102   -0.5499    0.0656 O   0  0  0  0  0  0  0  0  0  0  0  0
    2.1742    1.6948    0.0548 O   0  0  0  0  0  0  0  0  0  0  0  0
   -0.8128   -0.0836   -0.5503 C   0  0  2  0  0  0  0  0  0  0  0  0
   -2.3321   -0.0863   -0.2986 C   0  0  2  0  0  0  0  0  0  0  0  0
    0.0274    0.6802    0.4846 C   0  0  1  0  0  0  0  0  0  0  0  0
   -2.6831   -0.7029    1.0557 C   0  0  0  0  0  0  0  0  0  0  0  0
    1.5370    0.6588    0.2509 C   0  0  0  0  0  0  0  0  0  0  0  0
    2.2244   -0.6921    0.3049 C   0  0  0  0  0  0  0  0  0  0  0  0
    4.2864   -1.8025    0.1095 C   0  0  0  0  0  0  0  0  0  0  0  0
   -0.4779   -1.1283   -0.5559 H   0  0  0  0  0  0  0  0  0  0  0  0
   -2.7384    0.9281   -0.3748 H   0  0  0  0  0  0  0  0  0  0  0  0
   -0.1315    0.2856    1.4926 H   0  0  0  0  0  0  0  0  0  0  0  0
   -2.3431   -1.7421    1.1155 H   0  0  0  0  0  0  0  0  0  0  0  0
   -2.2603   -0.1318    1.8858 H   0  0  0  0  0  0  0  0  0  0  0  0
    2.0584   -1.1211    1.2986 H   0  0  0  0  0  0  0  0  0  0  0  0
    1.7909   -1.3379   -0.4643 H   0  0  0  0  0  0  0  0  0  0  0  0
   -1.0794   -0.1265   -2.4839 H   0  0  0  0  0  0  0  0  0  0  0  0
   -2.6450   -1.7515   -1.2809 H   0  0  0  0  0  0  0  0  0  0  0  0
   -0.3120    2.3807   -0.4134 H   0  0  0  0  0  0  0  0  0  0  0  0
   -4.2934   -1.1044    2.0711 H   0  0  0  0  0  0  0  0  0  0  0  0
    4.1777   -2.2610    1.0971 H   0  0  0  0  0  0  0  0  0  0  0  0
    5.3486   -1.6262   -0.0800 H   0  0  0  0  0  0  0  0  0  0  0  0
    3.8990   -2.4732   -0.6634 H   0  0  0  0  0  0  0  0  0  0  0  0
  1  7  1  0  0  0  0
  1 21  1  0  0  0  0
  2  8  1  0  0  0  0
  2 22  1  0  0  0  0
  3  9  1  0  0  0  0
  3 23  1  0  0  0  0
  4 10  1  0  0  0  0
  4 24  1  0  0  0  0
  5 12  1  0  0  0  0
  5 13  1  0  0  0  0
  6 11  2  0  0  0  0
  7  8  1  0  0  0  0
  7  9  1  0  0  0  0
  7 14  1  0  0  0  0
  8 10  1  0  0  0  0
  8 15  1  0  0  0  0
  9 11  1  0  0  0  0
  9 16  1  0  0  0  0
 10 17  1  0  0  0  0
 10 18  1  0  0  0  0
 11 12  1  0  0  0  0
 12 19  1  0  0  0  0
 12 20  1  0  0  0  0
 13 25  1  0  0  0  0
 13 26  1  0  0  0  0
 13 27  1  0  0  0  0
M  END
> <PUBCHEM_COMPOUND_CID>
542369

> <PUBCHEM_CONFORMER_RMSD>
0.8

> <PUBCHEM_CONFORMER_DIVERSEORDER>
1
256
152
285
46
352
234
327
11
434
13
413
441
95
307
213
138
109
295
337
427
71
288
153
393
415
250
17
73
450
178
418
398
4
9
320
207
41
421
53
355
360
251
231
390
92
43
247
2
386
303
361
167
170
107
145
137
47
448
54
297
237
345
78
252
42
373
381
388
80
3
241
123
162
22
65
267
248
353
141
215
131
319
257
55
335
149
36
122
444
453
187
296
380
32
20
6
222
286
189
209
93
331
449
201
139
318
351
214
262
246
391
81
276
119
206
422
277
242
443
57
156
409
45
329
348
115
75
240
40
456
87
437
190
304
232
56
279
82
90
403
268
365
30
426
60
406
28
31
446
127
12
67
86
182
148
49
228
212
378
340
301
302
66
160
410
102
144
412
33
374
184
359
369
133
372
166
197
29
253
129
147
368
158
451
181
308
157
225
280
260
130
21
18
289
400
62
103
238
236
64
423
420
233
291
39
266
263
16
338
336
51
7
165
26
452
179
259
275
88
402
243
19
433
414
389
113
44
269
416
159
85
350
342
177
322
333
432
204
108
377
193
429
293
195
89
312
226
261
98
274
72
411
37
439
101
118
76
396
14
191
10
23
442
176
74
254
382
306
97
230
180
404
50
235
150
436
192
354
61
196
367
34
305
140
370
394
99
255
408
358
239
35
186
136
343
244
77
111
38
341
5
294
216
84
199
405
217
174
155
366
364
323
58
161
401
245
70
431
8
419
188
362
424
219
227
447
125
121
194
438
171
249
69
221
283
383
363
330
272
146
202
324
454
25
183
371
210
375
328
168
315
270
379
126
169
94
321
96
325
220
151
124
104
224
387
346
172
68
48
290
357
208
27
258
384
211
128
110
407
175
264
392
440
271
100
425
399
63
339
299
120
132
200
395
164
435
198
298
455
135
282
356
15
106
134
281
313
326
309
142
116
347
314
218
154
83
316
287
205
292
59
430
310
173
317
117
397
91
278
114
332
24
52
265
229
376
273
300
79
105
428
284
163
334
203
385
143
417
185
112
223
445
349
311
344

> <PUBCHEM_MMFF94_PARTIAL_CHARGES>
17
1 -0.68
10 0.28
11 0.45
12 0.34
13 0.28
2 -0.68
21 0.4
22 0.4
23 0.4
24 0.4
3 -0.68
4 -0.68
5 -0.56
6 -0.57
7 0.28
8 0.28
9 0.34

> <PUBCHEM_EFFECTIVE_ROTOR_COUNT>
6

> <PUBCHEM_PHARMACOPHORE_FEATURES>
10
1 1 acceptor
1 1 donor
1 2 acceptor
1 2 donor
1 3 acceptor
1 3 donor
1 4 acceptor
1 4 donor
1 5 acceptor
1 6 acceptor

> <PUBCHEM_HEAVY_ATOM_COUNT>
13

> <PUBCHEM_ATOM_DEF_STEREO_COUNT>
0

> <PUBCHEM_ATOM_UDEF_STEREO_COUNT>
3

> <PUBCHEM_BOND_DEF_STEREO_COUNT>
0

> <PUBCHEM_BOND_UDEF_STEREO_COUNT>
0

> <PUBCHEM_ISOTOPIC_ATOM_COUNT>
0

> <PUBCHEM_COMPONENT_COUNT>
1

> <PUBCHEM_CACTVS_TAUTO_COUNT>
10

> <PUBCHEM_CONFORMER_ID>
000846A100000001

> <PUBCHEM_MMFF94_ENERGY>
22.5767

> <PUBCHEM_FEATURE_SELFOVERLAP>
50.79

> <PUBCHEM_SHAPE_FINGERPRINT>
10465860 71 15864072087243435223
11357001 24 18128257774845847224
11543360 7 15936421034983697126
12251169 10 17346605161870835995
124424 183 18413107239147733001
12897270 3 16732973219840497598
12932764 1 17988081209245743641
13296908 3 17458338684552414551
13296909 8 15123781890677619011
18186145 218 17385437726235749880
19422 9 17917709157753123814
19766037 51 18260272936342307442
20201158 50 18261106353197673226
20281407 28 18202556259707043610
20645477 70 18337375123877343711
20671657 53 17967820418581404958
20711985 344 17897988171189901781
20871998 184 17773592716063821220
20871998 22 18058180440178373902
20871999 31 15936407845149622115
21061003 4 18412821365591546938
21293036 1 13695874735255470242
228727 97 13912319075319284309
22926399 37 10665231466568788227
23382010 3 11963679961987415349
23557571 272 16733261360606815868
328317 168 8430303615772334874
528716 315 15357697487591801787

> <PUBCHEM_SHAPE_MULTIPOLES>
232.32
6.81
1.57
1.17
2.33
0.43
-0.37
-4.47
1.09
1.03
0.23
-1.1
-0.09
0.19

> <PUBCHEM_SHAPE_SELFOVERLAP>
439.052

> <PUBCHEM_SHAPE_VOLUME>
143.5

> <PUBCHEM_COORDINATE_TYPE>
2
5
10