56832481
  -OEChem-05042113263D

 24 24  0     1  0  0  0  0  0999 V2000
    3.6221   -0.0936    0.0809 P   0  0  0  0  0  0  0  0  0  0  0  0
   -0.5271   -1.2007    0.0755 O   0  0  0  0  0  0  0  0  0  0  0  0
   -1.2640    2.3801   -0.3166 O   0  0  0  0  0  0  0  0  0  0  0  0
   -3.8160    1.2299    0.4122 O   0  0  0  0  0  0  0  0  0  0  0  0
    2.0383   -0.3189   -0.3372 O   0  0  0  0  0  0  0  0  0  0  0  0
   -3.9242   -1.4691    0.3896 O   0  0  0  0  0  0  0  0  0  0  0  0
    4.3515   -1.2150   -0.6530 O   0  5  0  0  0  0  0  0  0  0  0  0
    3.6435   -0.2308    1.6004 O   0  5  0  0  0  0  0  0  0  0  0  0
    3.9609    1.3039   -0.4294 O   0  0  0  0  0  0  0  0  0  0  0  0
   -0.3046    0.1479   -0.3507 C   0  0  1  0  0  0  0  0  0  0  0  0
   -1.4326    1.0514    0.1710 C   0  0  2  0  0  0  0  0  0  0  0  0
   -2.7971    0.5497   -0.2988 C   0  0  1  0  0  0  0  0  0  0  0  0
    1.0627    0.5672    0.1803 C   0  0  0  0  0  0  0  0  0  0  0  0
   -2.9054   -0.9417   -0.0523 C   0  0  0  0  0  0  0  0  0  0  0  0
   -1.7079   -1.7602   -0.4718 C   0  0  0  0  0  0  0  0  0  0  0  0
   -0.2627    0.1654   -1.4484 H   0  0  0  0  0  0  0  0  0  0  0  0
   -1.4133    1.0940    1.2670 H   0  0  0  0  0  0  0  0  0  0  0  0
   -2.9432    0.7414   -1.3679 H   0  0  0  0  0  0  0  0  0  0  0  0
    1.0834    0.5038    1.2734 H   0  0  0  0  0  0  0  0  0  0  0  0
    1.3038    1.5904   -0.1233 H   0  0  0  0  0  0  0  0  0  0  0  0
   -1.8131   -2.7775   -0.0839 H   0  0  0  0  0  0  0  0  0  0  0  0
   -1.6493   -1.8040   -1.5641 H   0  0  0  0  0  0  0  0  0  0  0  0
   -1.2390    2.3428   -1.2881 H   0  0  0  0  0  0  0  0  0  0  0  0
   -4.6695    0.9528    0.0372 H   0  0  0  0  0  0  0  0  0  0  0  0
  1  5  1  0  0  0  0
  1  7  1  0  0  0  0
  1  8  1  0  0  0  0
  1  9  2  0  0  0  0
  2 10  1  0  0  0  0
  2 15  1  0  0  0  0
  3 11  1  0  0  0  0
  3 23  1  0  0  0  0
  4 12  1  0  0  0  0
  4 24  1  0  0  0  0
  5 13  1  0  0  0  0
  6 14  2  0  0  0  0
 10 11  1  0  0  0  0
 10 13  1  0  0  0  0
 10 16  1  0  0  0  0
 11 12  1  0  0  0  0
 11 17  1  0  0  0  0
 12 14  1  0  0  0  0
 12 18  1  0  0  0  0
 13 19  1  0  0  0  0
 13 20  1  0  0  0  0
 14 15  1  0  0  0  0
 15 21  1  0  0  0  0
 15 22  1  0  0  0  0
M  CHG  2   7  -1   8  -1
M  END
> <PUBCHEM_COMPOUND_CID>
56832481

> <PUBCHEM_CONFORMER_RMSD>
0.6

> <PUBCHEM_CONFORMER_DIVERSEORDER>
1
42
39
45
29
7
8
30
41
46
15
24
3
40
43
32
37
31
38
44
6
35
36
5
13
17
4
33
25
12
21
9
14
23
16
27
18
22
26
19
2
34
20
28
11
10

> <PUBCHEM_MMFF94_PARTIAL_CHARGES>
17
1 1.37
10 0.28
11 0.28
12 0.34
13 0.28
14 0.45
15 0.34
2 -0.56
23 0.4
24 0.4
3 -0.68
4 -0.68
5 -0.55
6 -0.57
7 -1.03
8 -1.03
9 -1.03

> <PUBCHEM_EFFECTIVE_ROTOR_COUNT>
4

> <PUBCHEM_PHARMACOPHORE_FEATURES>
11
1 2 acceptor
1 3 acceptor
1 3 donor
1 4 acceptor
1 4 donor
1 6 acceptor
1 7 acceptor
1 8 acceptor
1 9 acceptor
4 1 7 8 9 anion
6 2 10 11 12 14 15 rings

> <PUBCHEM_HEAVY_ATOM_COUNT>
15

> <PUBCHEM_ATOM_DEF_STEREO_COUNT>
3

> <PUBCHEM_ATOM_UDEF_STEREO_COUNT>
0

> <PUBCHEM_BOND_DEF_STEREO_COUNT>
0

> <PUBCHEM_BOND_UDEF_STEREO_COUNT>
0

> <PUBCHEM_ISOTOPIC_ATOM_COUNT>
0

> <PUBCHEM_COMPONENT_COUNT>
1

> <PUBCHEM_CACTVS_TAUTO_COUNT>
7

> <PUBCHEM_CONFORMER_ID>
036331E100000001

> <PUBCHEM_MMFF94_ENERGY>
32.6478

> <PUBCHEM_FEATURE_SELFOVERLAP>
55.879

> <PUBCHEM_SHAPE_FINGERPRINT>
11132069 177 18342452629882556681
12032990 46 18410296951471832279
12932764 1 17603578604657482076
13024252 1 16370725924810645373
13296908 3 18272088301321689102
14144814 61 18335136492733710714
14325111 11 18411138030511495540
15219456 202 17989214702528067951
15669948 3 18339918320247837046
17804303 29 18341897389427034676
17834074 16 18271248231483302550
18186145 218 17822006515068528446
19050596 39 18333726918937801792
19422 9 18186800287982254378
20279233 1 17489862744073158158
20281475 54 18272650198834108110
20510252 161 18343022189811804265
20645477 70 16773232886585717742
20871998 184 18272371983858771231
23402539 116 18201430407435348735
23557571 272 18201733871879515942
23559900 14 18343584010900794702
43471831 8 18261669277344692435
474 4 17096939185944552228
5104073 3 18411138043533548312
58051976 100 18262801761557043438
7364860 26 18124596650355073868
77779 3 18411422817166415332
9709674 26 18411989061381527422

> <PUBCHEM_SHAPE_MULTIPOLES>
265.59
8.16
1.79
0.81
5.87
0.28
0.19
-1
0.6
-1.18
-0.19
0.54
-0.05
0.02

> <PUBCHEM_SHAPE_SELFOVERLAP>
521.37

> <PUBCHEM_SHAPE_VOLUME>
159.3

> <PUBCHEM_COORDINATE_TYPE>
2
5
10