86585087
  -OEChem-05042113263D

 38 38  0     1  0  0  0  0  0999 V2000
   -0.4424   -2.1376    0.8511 O   0  0  0  0  0  0  0  0  0  0  0  0
    0.5152    0.5460   -1.3646 O   0  0  0  0  0  0  0  0  0  0  0  0
   -2.0456    0.4274    1.1237 O   0  0  0  0  0  0  0  0  0  0  0  0
    2.7707   -0.6619    0.0488 O   0  0  0  0  0  0  0  0  0  0  0  0
   -3.5206   -2.5751   -1.5332 O   0  0  0  0  0  0  0  0  0  0  0  0
    0.5472    2.6881   -0.5003 O   0  0  0  0  0  0  0  0  0  0  0  0
   -2.0500    2.6919    0.6662 O   0  0  0  0  0  0  0  0  0  0  0  0
    4.3960   -1.0292    1.6490 O   0  0  0  0  0  0  0  0  0  0  0  0
   -3.1373   -1.2396   -1.4031 N   0  0  0  0  0  0  0  0  0  0  0  0
   -0.0298    0.0511   -0.1413 C   0  0  2  0  0  0  0  0  0  0  0  0
    0.4939   -1.3817    0.0810 C   0  0  1  0  0  0  0  0  0  0  0  0
   -1.5574    0.1494   -0.1832 C   0  0  1  0  0  0  0  0  0  0  0  0
   -2.1610   -1.1788   -0.5584 C   0  0  0  0  0  0  0  0  0  0  0  0
   -1.6176   -2.4213    0.1077 C   0  0  0  0  0  0  0  0  0  0  0  0
    1.8249   -1.3748    0.8247 C   0  0  0  0  0  0  0  0  0  0  0  0
    0.7551    1.8900   -1.4041 C   0  0  0  0  0  0  0  0  0  0  0  0
   -2.2498    1.7492    1.4203 C   0  0  0  0  0  0  0  0  0  0  0  0
    4.0299   -0.5614    0.5793 C   0  0  0  0  0  0  0  0  0  0  0  0
    1.3219    2.2639   -2.7401 C   0  0  0  0  0  0  0  0  0  0  0  0
   -2.7614    1.8897    2.8220 C   0  0  0  0  0  0  0  0  0  0  0  0
    4.9181    0.2148   -0.3452 C   0  0  0  0  0  0  0  0  0  0  0  0
    0.3314    0.6627    0.6973 H   0  0  0  0  0  0  0  0  0  0  0  0
    0.6549   -1.8746   -0.8886 H   0  0  0  0  0  0  0  0  0  0  0  0
   -1.9040    0.8959   -0.9087 H   0  0  0  0  0  0  0  0  0  0  0  0
   -2.3659   -2.8192    0.7998 H   0  0  0  0  0  0  0  0  0  0  0  0
   -1.3771   -3.1877   -0.6370 H   0  0  0  0  0  0  0  0  0  0  0  0
    2.1654   -2.4064    0.9782 H   0  0  0  0  0  0  0  0  0  0  0  0
    1.7118   -0.9125    1.8135 H   0  0  0  0  0  0  0  0  0  0  0  0
    0.6082    2.0130   -3.5287 H   0  0  0  0  0  0  0  0  0  0  0  0
    1.5066    3.3416   -2.7670 H   0  0  0  0  0  0  0  0  0  0  0  0
    2.2700    1.7437   -2.8980 H   0  0  0  0  0  0  0  0  0  0  0  0
   -3.7151    1.3655    2.9220 H   0  0  0  0  0  0  0  0  0  0  0  0
   -2.9197    2.9484    3.0462 H   0  0  0  0  0  0  0  0  0  0  0  0
   -2.0265    1.4904    3.5253 H   0  0  0  0  0  0  0  0  0  0  0  0
   -4.2453   -2.5089   -2.1777 H   0  0  0  0  0  0  0  0  0  0  0  0
    5.0063   -0.3095   -1.2999 H   0  0  0  0  0  0  0  0  0  0  0  0
    5.9138    0.3052    0.0981 H   0  0  0  0  0  0  0  0  0  0  0  0
    4.5106    1.2181   -0.4935 H   0  0  0  0  0  0  0  0  0  0  0  0
  1 11  1  0  0  0  0
  1 14  1  0  0  0  0
  2 10  1  0  0  0  0
  2 16  1  0  0  0  0
  3 12  1  0  0  0  0
  3 17  1  0  0  0  0
  4 15  1  0  0  0  0
  4 18  1  0  0  0  0
  5  9  1  0  0  0  0
  5 35  1  0  0  0  0
  6 16  2  0  0  0  0
  7 17  2  0  0  0  0
  8 18  2  0  0  0  0
  9 13  2  3  0  0  0
 10 11  1  0  0  0  0
 10 12  1  0  0  0  0
 10 22  1  0  0  0  0
 11 15  1  0  0  0  0
 11 23  1  0  0  0  0
 12 13  1  0  0  0  0
 12 24  1  0  0  0  0
 13 14  1  0  0  0  0
 14 25  1  0  0  0  0
 14 26  1  0  0  0  0
 15 27  1  0  0  0  0
 15 28  1  0  0  0  0
 16 19  1  0  0  0  0
 17 20  1  0  0  0  0
 18 21  1  0  0  0  0
 19 29  1  0  0  0  0
 19 30  1  0  0  0  0
 19 31  1  0  0  0  0
 20 32  1  0  0  0  0
 20 33  1  0  0  0  0
 20 34  1  0  0  0  0
 21 36  1  0  0  0  0
 21 37  1  0  0  0  0
 21 38  1  0  0  0  0
M  END
> <PUBCHEM_COMPOUND_CID>
86585087

> <PUBCHEM_CONFORMER_RMSD>
0.8

> <PUBCHEM_CONFORMER_DIVERSEORDER>
1
55
16
35
69
39
25
13
70
9
67
61
72
52
63
73
36
12
31
46
57
34
33
29
15
23
45
11
10
75
49
38
50
59
65
80
3
28
19
51
47
4
17
56
22
76
8
27
14
18
40
26
78
66
71
62
68
21
48
54
5
42
74
64
44
58
79
6
7
60
24
20
37
43
77
81
2
53
30
41
32

> <PUBCHEM_MMFF94_PARTIAL_CHARGES>
22
1 -0.56
10 0.28
11 0.28
12 0.34
13 0.33
14 0.34
15 0.28
16 0.66
17 0.66
18 0.66
19 0.06
2 -0.43
20 0.06
21 0.06
3 -0.43
35 0.4
4 -0.43
5 -0.34
6 -0.57
7 -0.57
8 -0.57
9 -0.51

> <PUBCHEM_EFFECTIVE_ROTOR_COUNT>
8

> <PUBCHEM_PHARMACOPHORE_FEATURES>
7
1 1 acceptor
1 5 anion
1 6 acceptor
1 7 acceptor
1 8 acceptor
1 9 acceptor
6 1 10 11 12 13 14 rings

> <PUBCHEM_HEAVY_ATOM_COUNT>
21

> <PUBCHEM_ATOM_DEF_STEREO_COUNT>
3

> <PUBCHEM_ATOM_UDEF_STEREO_COUNT>
0

> <PUBCHEM_BOND_DEF_STEREO_COUNT>
0

> <PUBCHEM_BOND_UDEF_STEREO_COUNT>
1

> <PUBCHEM_ISOTOPIC_ATOM_COUNT>
0

> <PUBCHEM_COMPONENT_COUNT>
1

> <PUBCHEM_CACTVS_TAUTO_COUNT>
4

> <PUBCHEM_CONFORMER_ID>
05292EFF00000001

> <PUBCHEM_MMFF94_ENERGY>
44.8469

> <PUBCHEM_FEATURE_SELFOVERLAP>
35.527

> <PUBCHEM_SHAPE_FINGERPRINT>
12553582 1 17822300067846677382
12633257 1 18270397179745622320
133893 2 17678190484165332820
14142880 1 18266444439068522683
14955137 171 18046099032139970392
16945 1 17987215790684332339
20600515 1 17758915528164714946
22112679 90 18339942479254345245
23352939 185 18188473770534046607
23402539 116 18265592386567272998
23419403 2 17767078268082229292
23557571 272 17060071353672509729
23558518 356 17328627253261862308
2748010 2 17395860860475766140
3286 77 18129924768202870266
568465 68 16298968471097191258
5845 1 17969784072980975398
68419 9 18198084606056963805
6992083 37 18334580105263561768
7471813 234 17985531493526104983
81228 2 18261104124378522314
90316 7 17895743007743773232
9999458 23 16694719883576778417

> <PUBCHEM_SHAPE_MULTIPOLES>
380.23
6.58
3.16
2.15
7.42
0.72
0.06
-1.52
1.91
-2.02
-0.61
-1.04
1.35
-3.3

> <PUBCHEM_SHAPE_SELFOVERLAP>
767.369

> <PUBCHEM_SHAPE_VOLUME>
220.1

> <PUBCHEM_COORDINATE_TYPE>
2
5
10