87746604
  -OEChem-05042113263D

 24 23  0     1  0  0  0  0  0999 V2000
    2.9989    2.0238    0.0819 Cl  0  0  0  0  0  0  0  0  0  0  0  0
   -2.8429    1.9791   -0.7386 Cl  0  0  0  0  0  0  0  0  0  0  0  0
    0.3200    0.2269   -1.4662 O   0  0  0  0  0  0  0  0  0  0  0  0
    2.0746   -0.4232    1.6282 O   0  0  0  0  0  0  0  0  0  0  0  0
   -0.4460   -2.2390   -0.2937 O   0  0  0  0  0  0  0  0  0  0  0  0
    4.2894   -0.2358   -0.1413 O   0  0  0  0  0  0  0  0  0  0  0  0
   -2.7423   -1.0907   -0.8851 O   0  0  0  0  0  0  0  0  0  0  0  0
   -3.7373    0.5946    1.2686 O   0  0  0  0  0  0  0  0  0  0  0  0
    0.4412   -0.0107   -0.0540 C   0  0  2  0  0  0  0  0  0  0  0  0
    1.8841   -0.4950    0.2027 C   0  0  1  0  0  0  0  0  0  0  0  0
   -0.6681   -0.9889    0.3442 C   0  0  1  0  0  0  0  0  0  0  0  0
    3.0160    0.3219   -0.4367 C   0  0  1  0  0  0  0  0  0  0  0  0
   -2.0509   -0.4789   -0.0682 C   0  0  0  0  0  0  0  0  0  0  0  0
   -2.5368    0.8158    0.5583 C   0  0  1  0  0  0  0  0  0  0  0  0
    0.2866    0.9478    0.4537 H   0  0  0  0  0  0  0  0  0  0  0  0
    2.0126   -1.5423   -0.0938 H   0  0  0  0  0  0  0  0  0  0  0  0
   -0.6798   -1.1646    1.4242 H   0  0  0  0  0  0  0  0  0  0  0  0
    2.9083    0.3178   -1.5257 H   0  0  0  0  0  0  0  0  0  0  0  0
   -0.4758    0.7663   -1.6101 H   0  0  0  0  0  0  0  0  0  0  0  0
   -1.7974    1.2312    1.2454 H   0  0  0  0  0  0  0  0  0  0  0  0
    1.4882   -1.0822    2.0365 H   0  0  0  0  0  0  0  0  0  0  0  0
   -0.3629   -2.0756   -1.2489 H   0  0  0  0  0  0  0  0  0  0  0  0
    4.9527    0.4062   -0.4462 H   0  0  0  0  0  0  0  0  0  0  0  0
   -4.4363    0.4488    0.6087 H   0  0  0  0  0  0  0  0  0  0  0  0
  1 12  1  0  0  0  0
  2 14  1  0  0  0  0
  3  9  1  0  0  0  0
  3 19  1  0  0  0  0
  4 10  1  0  0  0  0
  4 21  1  0  0  0  0
  5 11  1  0  0  0  0
  5 22  1  0  0  0  0
  6 12  1  0  0  0  0
  6 23  1  0  0  0  0
  7 13  2  0  0  0  0
  8 14  1  0  0  0  0
  8 24  1  0  0  0  0
  9 10  1  0  0  0  0
  9 11  1  0  0  0  0
  9 15  1  0  0  0  0
 10 12  1  0  0  0  0
 10 16  1  0  0  0  0
 11 13  1  0  0  0  0
 11 17  1  0  0  0  0
 12 18  1  0  0  0  0
 13 14  1  0  0  0  0
 14 20  1  0  0  0  0
M  END
> <PUBCHEM_COMPOUND_CID>
87746604

> <PUBCHEM_CONFORMER_RMSD>
1

> <PUBCHEM_CONFORMER_DIVERSEORDER>
1
102
35
62
11
14
91
72
18
47
73
93
23
103
80
27
42
99
58
7
68
77
116
100
53
45
59
6
87
74
33
112
40
24
114
39
109
10
63
4
90
52
48
84
9
57
96
37
101
26
49
46
13
107
41
64
98
34
104
43
38
21
115
2
19
94
55
113
89
86
92
12
111
97
29
79
56
17
65
25
44
76
110
8
54
61
16
31
60
88
36
5
78
83
67
66
75
95
3
71
85
70
28
81
105
51
30
108
15
69
50
20
82
106
22
32

> <PUBCHEM_MMFF94_PARTIAL_CHARGES>
19
1 -0.29
10 0.28
11 0.34
12 0.57
13 0.45
14 0.63
19 0.4
2 -0.29
21 0.4
22 0.4
23 0.4
24 0.4
3 -0.68
4 -0.68
5 -0.68
6 -0.68
7 -0.57
8 -0.68
9 0.28

> <PUBCHEM_EFFECTIVE_ROTOR_COUNT>
5

> <PUBCHEM_PHARMACOPHORE_FEATURES>
11
1 3 acceptor
1 3 donor
1 4 acceptor
1 4 donor
1 5 acceptor
1 5 donor
1 6 acceptor
1 6 donor
1 7 acceptor
1 8 acceptor
1 8 donor

> <PUBCHEM_HEAVY_ATOM_COUNT>
14

> <PUBCHEM_ATOM_DEF_STEREO_COUNT>
3

> <PUBCHEM_ATOM_UDEF_STEREO_COUNT>
2

> <PUBCHEM_BOND_DEF_STEREO_COUNT>
0

> <PUBCHEM_BOND_UDEF_STEREO_COUNT>
0

> <PUBCHEM_ISOTOPIC_ATOM_COUNT>
0

> <PUBCHEM_COMPONENT_COUNT>
1

> <PUBCHEM_CACTVS_TAUTO_COUNT>
6

> <PUBCHEM_CONFORMER_ID>
053AE82C00000001

> <PUBCHEM_MMFF94_ENERGY>
20.0924

> <PUBCHEM_FEATURE_SELFOVERLAP>
55.85

> <PUBCHEM_SHAPE_FINGERPRINT>
11715629 250 18340202002932800128
12162725 195 18272089443587759020
12251169 10 17168158831619845785
12491281 212 18336553797434037344
12932764 1 18259981569908104040
14144814 61 18334571365036737002
15775835 57 18409170995682935689
16945 1 18187639223722733362
17834072 32 18337670819744388005
18186145 218 18201723933578471660
201361 129 17894911781042478784
20281407 28 11819277779833438121
20645477 56 18342742961393074656
20653085 51 18272661155132052467
20711983 171 18130795589527243020
21061003 4 14996002150997644078
21119208 17 13758074056720781785
21256008 23 17022911154930591836
21524375 3 18412267224753433531
23402539 116 17561081367662994897
23559900 14 17775287154283146610
305870 269 18262519165573048651
3248919 1 18270952548686016358
58051976 100 18273221919073961326
81228 2 17911222138192469299

> <PUBCHEM_SHAPE_MULTIPOLES>
256.64
6.54
1.84
1.1
1.82
0.42
0.13
2.34
0.59
-0.41
-0.24
-0.28
0.02
-0.15

> <PUBCHEM_SHAPE_SELFOVERLAP>
478.294

> <PUBCHEM_SHAPE_VOLUME>
160.9

> <PUBCHEM_COORDINATE_TYPE>
2
5
10