100938762
  -OEChem-05042113263D

 24 23  0     1  0  0  0  0  0999 V2000
   -0.3507    0.2846    1.6168 O   0  0  0  0  0  0  0  0  0  0  0  0
   -2.1232   -0.0961   -1.5767 O   0  0  0  0  0  0  0  0  0  0  0  0
    0.4002   -1.9834    0.0157 O   0  0  0  0  0  0  0  0  0  0  0  0
   -4.2739    0.3480    0.1335 O   0  0  0  0  0  0  0  0  0  0  0  0
    2.7915   -1.0024    0.5188 O   0  0  0  0  0  0  0  0  0  0  0  0
    3.8346    1.3522   -0.1662 O   0  0  0  0  0  0  0  0  0  0  0  0
   -0.4982    0.2328    0.2008 C   0  0  2  0  0  0  0  0  0  0  0  0
   -1.9436   -0.1555   -0.1621 C   0  0  1  0  0  0  0  0  0  0  0  0
    0.5984   -0.6448   -0.4220 C   0  0  1  0  0  0  0  0  0  0  0  0
   -2.9638    0.7834    0.4825 C   0  0  0  0  0  0  0  0  0  0  0  0
    2.0331   -0.2422   -0.0849 C   0  0  0  0  0  0  0  0  0  0  0  0
    2.4954    1.1234   -0.5561 C   0  0  0  0  0  0  0  0  0  0  0  0
   -0.3423    1.2565   -0.1630 H   0  0  0  0  0  0  0  0  0  0  0  0
   -2.1540   -1.1834    0.1560 H   2  0  0  0  0  0  0  0  0  0  0  0
    0.5127   -0.6490   -1.5139 H   0  0  0  0  0  0  0  0  0  0  0  0
   -2.8823    0.7817    1.5733 H   0  0  0  0  0  0  0  0  0  0  0  0
   -2.8439    1.8057    0.1091 H   0  0  0  0  0  0  0  0  0  0  0  0
    0.5198    0.6693    1.8141 H   0  0  0  0  0  0  0  0  0  0  0  0
    2.4292    1.1644   -1.6467 H   0  0  0  0  0  0  0  0  0  0  0  0
    1.8699    1.8975   -0.1060 H   0  0  0  0  0  0  0  0  0  0  0  0
   -3.0450   -0.3428   -1.7646 H   0  0  0  0  0  0  0  0  0  0  0  0
    0.4094   -1.9819    0.9884 H   0  0  0  0  0  0  0  0  0  0  0  0
   -4.8994    0.9646    0.5508 H   0  0  0  0  0  0  0  0  0  0  0  0
    4.0873    2.2274   -0.5065 H   0  0  0  0  0  0  0  0  0  0  0  0
  1  7  1  0  0  0  0
  1 18  1  0  0  0  0
  2  8  1  0  0  0  0
  2 21  1  0  0  0  0
  3  9  1  0  0  0  0
  3 22  1  0  0  0  0
  4 10  1  0  0  0  0
  4 23  1  0  0  0  0
  5 11  2  0  0  0  0
  6 12  1  0  0  0  0
  6 24  1  0  0  0  0
  7  8  1  0  0  0  0
  7  9  1  0  0  0  0
  7 13  1  0  0  0  0
  8 10  1  0  0  0  0
  8 14  1  0  0  0  0
  9 11  1  0  0  0  0
  9 15  1  0  0  0  0
 10 16  1  0  0  0  0
 10 17  1  0  0  0  0
 11 12  1  0  0  0  0
 12 19  1  0  0  0  0
 12 20  1  0  0  0  0
M  ISO  1  14   3
M  END
> <PUBCHEM_COMPOUND_CID>
100938762

> <PUBCHEM_CONFORMER_RMSD>
0.6

> <PUBCHEM_CONFORMER_DIVERSEORDER>
1
24
259
236
262
116
22
252
229
153
162
148
137
32
53
128
163
31
91
241
136
256
232
25
154
58
159
260
88
41
94
35
59
96
81
268
89
108
7
50
161
57
185
242
155
38
184
144
11
253
105
115
132
101
60
265
8
205
169
14
197
151
171
186
129
98
247
86
87
238
149
198
45
217
263
103
210
63
152
202
267
174
64
36
237
192
221
219
80
4
203
269
2
119
61
6
224
138
157
233
10
194
29
165
160
68
28
43
21
131
139
90
156
193
18
177
127
126
79
17
150
112
222
62
178
216
34
248
204
270
183
249
158
120
124
77
130
39
170
235
110
240
118
27
261
19
83
113
142
134
189
181
75
114
213
20
175
74
95
176
212
146
13
44
84
250
73
173
147
145
33
49
245
266
244
209
187
167
42
231
111
208
168
143
228
16
201
66
190
188
243
166
223
258
78
234
172
225
99
121
82
196
93
76
52
55
206
140
255
102
107
92
67
56
70
100
125
30
199
72
211
3
40
218
26
227
191
37
65
195
47
97
239
69
122
200
207
164
135
123
106
214
48
12
133
179
257
5
15
71
141
180
182
254
46
264
251
85
54
23
104
226
51
246
220
109
117
9
230
215

> <PUBCHEM_MMFF94_PARTIAL_CHARGES>
17
1 -0.68
10 0.28
11 0.45
12 0.34
18 0.4
2 -0.68
21 0.4
22 0.4
23 0.4
24 0.4
3 -0.68
4 -0.68
5 -0.57
6 -0.68
7 0.28
8 0.28
9 0.34

> <PUBCHEM_EFFECTIVE_ROTOR_COUNT>
5

> <PUBCHEM_PHARMACOPHORE_FEATURES>
11
1 1 acceptor
1 1 donor
1 2 acceptor
1 2 donor
1 3 acceptor
1 3 donor
1 4 acceptor
1 4 donor
1 5 acceptor
1 6 acceptor
1 6 donor

> <PUBCHEM_HEAVY_ATOM_COUNT>
12

> <PUBCHEM_ATOM_DEF_STEREO_COUNT>
3

> <PUBCHEM_ATOM_UDEF_STEREO_COUNT>
0

> <PUBCHEM_BOND_DEF_STEREO_COUNT>
0

> <PUBCHEM_BOND_UDEF_STEREO_COUNT>
0

> <PUBCHEM_ISOTOPIC_ATOM_COUNT>
1

> <PUBCHEM_COMPONENT_COUNT>
1

> <PUBCHEM_CACTVS_TAUTO_COUNT>
1

> <PUBCHEM_CONFORMER_ID>
0604340A00000001

> <PUBCHEM_MMFF94_ENERGY>
16.7211

> <PUBCHEM_FEATURE_SELFOVERLAP>
55.858

> <PUBCHEM_SHAPE_FINGERPRINT>
10219947 1 18259706679105643821
10857977 72 15647061456015781277
12251169 10 14346077581156446260
12932764 1 17385438800019849826
14325111 11 18409451396669739967
15310529 11 18341612556276469925
15775835 57 18343023310977726820
170605 34 18341337720797063543
18186145 218 18411136926699554526
20645464 45 16660360411243620968
20645476 183 17703790348838210055
20711985 344 13253979848264163674
20871999 31 16343415228112709637
21119208 17 17060347326849160756
21293036 1 16917071070392623369
21499 59 18410854390739347150
228727 97 17489598835037837440
23211744 41 17385720266496173203
23402539 116 16515958268129347903
23552423 10 17773044050770881839
5084963 1 18059013874313491026
528886 8 18411135861458162993
57812782 119 16515402967153828621

> <PUBCHEM_SHAPE_MULTIPOLES>
211.74
6.02
1.28
1.02
1.45
0.31
0
-2.26
-0.19
-0.91
0
0.36
-0.04
-0.43

> <PUBCHEM_SHAPE_SELFOVERLAP>
401.736

> <PUBCHEM_SHAPE_VOLUME>
129.9

> <PUBCHEM_COORDINATE_TYPE>
2
5
10