101479484
  -OEChem-05042113263D

 41 41  0     1  0  0  0  0  0999 V2000
   -3.2119    1.0418    1.0429 O   0  0  0  0  0  0  0  0  0  0  0  0
   -2.2607   -1.6511    1.5970 O   0  0  0  0  0  0  0  0  0  0  0  0
   -4.3002   -1.6005   -1.2267 O   0  0  0  0  0  0  0  0  0  0  0  0
   -0.0699   -0.1831    1.8180 O   0  0  0  0  0  0  0  0  0  0  0  0
   -5.3602    1.0044   -1.6588 O   0  0  0  0  0  0  0  0  0  0  0  0
    1.2168    1.2400   -0.0479 N   0  0  3  0  0  0  0  0  0  0  0  0
   -3.0527    0.0361    0.0337 C   0  0  1  0  0  0  0  0  0  0  0  0
   -1.9112   -0.9062    0.4398 C   0  0  1  0  0  0  0  0  0  0  0  0
   -4.4141   -0.6608   -0.1512 C   0  0  1  0  0  0  0  0  0  0  0  0
   -0.6019   -0.1639    0.7075 C   0  0  0  0  0  0  0  0  0  0  0  0
   -0.0049    0.5965   -0.4602 C   0  0  0  0  0  0  0  0  0  0  0  0
   -5.5824    0.2754   -0.4579 C   0  0  0  0  0  0  0  0  0  0  0  0
    2.4588    0.5964   -0.1595 C   0  0  0  0  0  0  0  0  0  0  0  0
    1.1472    2.6004    0.4913 C   0  0  0  0  0  0  0  0  0  0  0  0
    3.6351    1.3463   -0.1660 C   0  0  0  0  0  0  0  0  0  0  0  0
    2.5170   -0.7933   -0.2644 C   0  0  0  0  0  0  0  0  0  0  0  0
    4.9276   -0.6834   -0.3823 C   0  0  0  0  0  0  0  0  0  0  0  0
    4.8693    0.7063   -0.2774 C   0  0  0  0  0  0  0  0  0  0  0  0
    3.7513   -1.4332   -0.3759 C   0  0  0  0  0  0  0  0  0  0  0  0
    6.2470   -1.3680   -0.5019 C   0  0  0  0  0  0  0  0  0  0  0  0
   -2.7908    0.5442   -0.9014 H   0  0  0  0  0  0  0  0  0  0  0  0
   -1.7090   -1.6314   -0.3554 H   0  0  0  0  0  0  0  0  0  0  0  0
   -4.6794   -1.2169    0.7560 H   0  0  0  0  0  0  0  0  0  0  0  0
   -0.7222    1.3577   -0.7835 H   0  0  0  0  0  0  0  0  0  0  0  0
    0.1391   -0.0790   -1.3106 H   0  0  0  0  0  0  0  0  0  0  0  0
   -5.7451    0.9863    0.3580 H   0  0  0  0  0  0  0  0  0  0  0  0
   -6.4976   -0.3095   -0.5999 H   0  0  0  0  0  0  0  0  0  0  0  0
   -2.4184    1.6028    1.0331 H   0  0  0  0  0  0  0  0  0  0  0  0
   -2.5102   -1.0179    2.2918 H   0  0  0  0  0  0  0  0  0  0  0  0
    0.1149    2.8700    0.7424 H   0  0  0  0  0  0  0  0  0  0  0  0
    1.7297    2.6929    1.4147 H   0  0  0  0  0  0  0  0  0  0  0  0
    1.5039    3.3280   -0.2452 H   0  0  0  0  0  0  0  0  0  0  0  0
   -3.7360   -2.3308   -0.9216 H   0  0  0  0  0  0  0  0  0  0  0  0
    3.6351    2.4300   -0.0988 H   0  0  0  0  0  0  0  0  0  0  0  0
    1.6316   -1.4209   -0.2528 H   0  0  0  0  0  0  0  0  0  0  0  0
    5.7790    1.3010   -0.2823 H   0  0  0  0  0  0  0  0  0  0  0  0
    3.7845   -2.5168   -0.4530 H   0  0  0  0  0  0  0  0  0  0  0  0
   -6.1387    1.5702   -1.7974 H   0  0  0  0  0  0  0  0  0  0  0  0
    6.6305   -1.6206    0.4916 H   0  0  0  0  0  0  0  0  0  0  0  0
    6.1629   -2.2881   -1.0902 H   0  0  0  0  0  0  0  0  0  0  0  0
    6.9790   -0.7300   -1.0088 H   0  0  0  0  0  0  0  0  0  0  0  0
  1  7  1  0  0  0  0
  1 28  1  0  0  0  0
  2  8  1  0  0  0  0
  2 29  1  0  0  0  0
  3  9  1  0  0  0  0
  3 33  1  0  0  0  0
  4 10  2  0  0  0  0
  5 12  1  0  0  0  0
  5 38  1  0  0  0  0
  6 11  1  0  0  0  0
  6 13  1  0  0  0  0
  6 14  1  0  0  0  0
  7  8  1  0  0  0  0
  7  9  1  0  0  0  0
  7 21  1  0  0  0  0
  8 10  1  0  0  0  0
  8 22  1  0  0  0  0
  9 12  1  0  0  0  0
  9 23  1  0  0  0  0
 10 11  1  0  0  0  0
 11 24  1  0  0  0  0
 11 25  1  0  0  0  0
 12 26  1  0  0  0  0
 12 27  1  0  0  0  0
 13 15  2  0  0  0  0
 13 16  1  0  0  0  0
 14 30  1  0  0  0  0
 14 31  1  0  0  0  0
 14 32  1  0  0  0  0
 15 18  1  0  0  0  0
 15 34  1  0  0  0  0
 16 19  2  0  0  0  0
 16 35  1  0  0  0  0
 17 18  2  0  0  0  0
 17 19  1  0  0  0  0
 17 20  1  0  0  0  0
 18 36  1  0  0  0  0
 19 37  1  0  0  0  0
 20 39  1  0  0  0  0
 20 40  1  0  0  0  0
 20 41  1  0  0  0  0
M  END
> <PUBCHEM_COMPOUND_CID>
101479484

> <PUBCHEM_CONFORMER_RMSD>
1

> <PUBCHEM_CONFORMER_DIVERSEORDER>
2
127
9
121
54
169
19
101
89
135
81
79
12
128
176
137
52
11
155
115
106
40
102
147
166
173
74
107
61
139
114
117
3
37
158
157
5
42
109
10
55
149
41
138
75
180
77
51
82
15
145
148
48
164
31
93
44
129
85
131
39
28
141
76
22
178
49
179
90
110
78
134
72
172
26
50
33
140
120
13
125
18
97
159
116
4
62
69
91
123
6
83
30
21
174
1
8
94
16
35
45
67
29
53
146
108
87
168
136
64
100
24
95
175
65
113
14
161
165
32
132
23
43
70
36
58
112
47
171
25
34
63
96
144
167
142
7
126
99
160
163
60
71
57
111
162
20
84
59
151
73
130
177
17
170
86
153
56
66
80
156
92
104
27
105
103
143
152
38
122
98
133
46
154
118
68
124
119
150
88

> <PUBCHEM_MMFF94_PARTIAL_CHARGES>
28
1 -0.68
10 0.45
11 0.43
12 0.28
13 0.1
14 0.37
15 -0.15
16 -0.15
17 -0.14
18 -0.15
19 -0.15
2 -0.68
20 0.14
28 0.4
29 0.4
3 -0.68
33 0.4
34 0.15
35 0.15
36 0.15
37 0.15
38 0.4
4 -0.57
5 -0.68
6 -0.84
7 0.28
8 0.34
9 0.28

> <PUBCHEM_EFFECTIVE_ROTOR_COUNT>
7

> <PUBCHEM_PHARMACOPHORE_FEATURES>
11
1 1 acceptor
1 1 donor
1 2 acceptor
1 2 donor
1 3 acceptor
1 3 donor
1 4 acceptor
1 5 acceptor
1 5 donor
1 6 cation
6 13 15 16 17 18 19 rings

> <PUBCHEM_HEAVY_ATOM_COUNT>
20

> <PUBCHEM_ATOM_DEF_STEREO_COUNT>
3

> <PUBCHEM_ATOM_UDEF_STEREO_COUNT>
0

> <PUBCHEM_BOND_DEF_STEREO_COUNT>
0

> <PUBCHEM_BOND_UDEF_STEREO_COUNT>
0

> <PUBCHEM_ISOTOPIC_ATOM_COUNT>
0

> <PUBCHEM_COMPONENT_COUNT>
1

> <PUBCHEM_CACTVS_TAUTO_COUNT>
2

> <PUBCHEM_CONFORMER_ID>
060C743C00000002

> <PUBCHEM_MMFF94_ENERGY>
57.6955

> <PUBCHEM_FEATURE_SELFOVERLAP>
55.841

> <PUBCHEM_SHAPE_FINGERPRINT>
10447042 23 18202561778993181340
10670039 82 16877932798898321557
11315181 36 18272374178576477224
11796584 16 17561083618210138231
12236239 1 17489871540028932966
12516196 113 18201720665461865320
12555020 224 18408323289334810707
12596602 18 15554445185109413162
12670543 26 17968094188181181710
12760667 363 18336831871366680114
12788726 201 18264766562981919992
12954195 1 18190738644138984173
13134695 92 18200878477841014080
13167823 11 18131351933557258103
13544592 145 18114181951535490876
14251751 18 17418085576855687967
14251752 14 17604143727611212526
14573314 32 18113335297438289413
15099037 51 18408323289271169455
15183329 4 18336823105063726077
15242439 84 18186241736054251530
15375358 24 18187088390394228666
1601671 61 15068616080523125159
17349148 13 16486981725415608253
17834072 33 18272933851369572956
17834072 8 18040719151503935406
18186145 218 17458624561696530457
18222031 100 16702310061567749504
19489759 90 16559033762087569571
19784866 9 11602810315998142052
200 152 18060142033225269498
20028762 73 18131069291294468510
20645477 70 18342462534583745062
21267235 1 18342187652318432534
21285901 2 18040715814414625878
221357 26 18408315584559127469
2215653 11 18334857212279761582
22224240 67 16917058955128866142
23402539 116 17988646268402647321
23402655 69 18409162199890535357
23536379 177 18343302565725084815
23559900 14 18271801379920408513
2871803 45 18333735689619787594
29717793 49 17917435306733650036
3004659 81 18186520986865669838
3009799 131 18334292063867327096
32948 21 17894630353057135724
339767 52 17203605990855708286
347723 3 15357695284574213740
4214541 1 18343024363176161953
439807 62 17845082052033552687
5283173 99 18262513689305422588
59682541 35 11671482509217686526
59682541 52 18337936923365053567
59755656 520 17676205776105525475
633830 44 17386000740666259295
7471813 234 17418092139302154312
8988823 20 17489860558114217984
960060 61 18336273413785182636
9709674 26 18118970427727589315
9971528 1 18410853295887248388

> <PUBCHEM_SHAPE_MULTIPOLES>
377.26
13.52
1.82
1.14
1.68
0.57
-0.19
-3.43
4.81
-0.89
-0.08
1.27
-0.13
0.45

> <PUBCHEM_SHAPE_SELFOVERLAP>
764.625

> <PUBCHEM_SHAPE_VOLUME>
220.3

> <PUBCHEM_COORDINATE_TYPE>
2
5
10