101458836
  -OEChem-05042113263D

 24 23  0     1  0  0  0  0  0999 V2000
    2.9408   -2.0029   -0.0868 Cl  0  0  0  0  0  0  0  0  0  0  0  0
    0.0087   -0.0647    1.6083 O   0  0  0  0  0  0  0  0  0  0  0  0
    1.8461    0.5450   -1.5140 O   0  0  0  0  0  0  0  0  0  0  0  0
   -0.8516    2.0933   -0.0209 O   0  0  0  0  0  0  0  0  0  0  0  0
    4.0467    0.3294    0.1665 O   0  0  0  0  0  0  0  0  0  0  0  0
   -3.0912    0.8743    0.5093 O   0  0  0  0  0  0  0  0  0  0  0  0
   -3.8862   -1.5841   -0.1379 O   0  0  0  0  0  0  0  0  0  0  0  0
    0.2375   -0.0562    0.1999 C   0  0  2  0  0  0  0  0  0  0  0  0
    1.6592    0.4698   -0.0963 C   0  0  1  0  0  0  0  0  0  0  0  0
   -0.8862    0.7453   -0.4705 C   0  0  1  0  0  0  0  0  0  0  0  0
    2.8280   -0.3281    0.4996 C   0  0  1  0  0  0  0  0  0  0  0  0
   -2.2661    0.1964   -0.1051 C   0  0  0  0  0  0  0  0  0  0  0  0
   -2.5856   -1.2174   -0.5521 C   0  0  0  0  0  0  0  0  0  0  0  0
    0.1691   -1.0912   -0.1518 H   0  0  0  0  0  0  0  0  0  0  0  0
    1.7387    1.4975    0.2810 H   0  0  0  0  0  0  0  0  0  0  0  0
   -0.7942    0.7484   -1.5608 H   0  0  0  0  0  0  0  0  0  0  0  0
    2.7556   -0.3633    1.5905 H   0  0  0  0  0  0  0  0  0  0  0  0
    0.5968   -0.7320    1.9997 H   0  0  0  0  0  0  0  0  0  0  0  0
    2.7329    0.9114   -1.6725 H   0  0  0  0  0  0  0  0  0  0  0  0
   -2.5316   -1.2657   -1.6431 H   0  0  0  0  0  0  0  0  0  0  0  0
   -1.8795   -1.9186   -0.1032 H   0  0  0  0  0  0  0  0  0  0  0  0
   -0.8467    2.0841    0.9517 H   0  0  0  0  0  0  0  0  0  0  0  0
    4.7664   -0.2691    0.4292 H   0  0  0  0  0  0  0  0  0  0  0  0
   -4.0527   -2.4812   -0.4740 H   0  0  0  0  0  0  0  0  0  0  0  0
  1 11  1  0  0  0  0
  2  8  1  0  0  0  0
  2 18  1  0  0  0  0
  3  9  1  0  0  0  0
  3 19  1  0  0  0  0
  4 10  1  0  0  0  0
  4 22  1  0  0  0  0
  5 11  1  0  0  0  0
  5 23  1  0  0  0  0
  6 12  2  0  0  0  0
  7 13  1  0  0  0  0
  7 24  1  0  0  0  0
  8  9  1  0  0  0  0
  8 10  1  0  0  0  0
  8 14  1  0  0  0  0
  9 11  1  0  0  0  0
  9 15  1  0  0  0  0
 10 12  1  0  0  0  0
 10 16  1  0  0  0  0
 11 17  1  0  0  0  0
 12 13  1  0  0  0  0
 13 20  1  0  0  0  0
 13 21  1  0  0  0  0
M  END
> <PUBCHEM_COMPOUND_CID>
101458836

> <PUBCHEM_CONFORMER_RMSD>
0.8

> <PUBCHEM_CONFORMER_DIVERSEORDER>
1
169
104
22
186
123
111
168
53
125
187
80
164
178
10
69
133
33
72
163
155
127
188
30
157
26
185
116
114
107
97
124
9
46
137
18
78
74
146
12
3
180
56
151
150
23
91
24
34
52
161
5
63
45
25
8
134
108
126
81
95
141
140
128
38
173
39
109
41
50
20
171
121
145
6
172
93
122
166
105
61
152
135
158
130
83
36
79
120
167
156
153
60
160
40
165
129
162
4
112
179
21
170
147
85
31
100
84
92
143
139
159
94
64
110
19
37
16
77
2
14
103
132
42
13
66
113
68
76
131
101
27
48
73
181
184
174
55
115
89
17
88
119
87
51
47
70
106
71
144
175
32
176
138
43
99
86
15
142
7
148
136
49
118
82
28
44
154
67
96
102
65
149
98
59
75
90
11
29
177
35
54
183
117
58
57
182
62

> <PUBCHEM_MMFF94_PARTIAL_CHARGES>
18
1 -0.29
10 0.34
11 0.57
12 0.45
13 0.34
18 0.4
19 0.4
2 -0.68
22 0.4
23 0.4
24 0.4
3 -0.68
4 -0.68
5 -0.68
6 -0.57
7 -0.68
8 0.28
9 0.28

> <PUBCHEM_EFFECTIVE_ROTOR_COUNT>
5

> <PUBCHEM_PHARMACOPHORE_FEATURES>
11
1 2 acceptor
1 2 donor
1 3 acceptor
1 3 donor
1 4 acceptor
1 4 donor
1 5 acceptor
1 5 donor
1 6 acceptor
1 7 acceptor
1 7 donor

> <PUBCHEM_HEAVY_ATOM_COUNT>
13

> <PUBCHEM_ATOM_DEF_STEREO_COUNT>
3

> <PUBCHEM_ATOM_UDEF_STEREO_COUNT>
1

> <PUBCHEM_BOND_DEF_STEREO_COUNT>
0

> <PUBCHEM_BOND_UDEF_STEREO_COUNT>
0

> <PUBCHEM_ISOTOPIC_ATOM_COUNT>
0

> <PUBCHEM_COMPONENT_COUNT>
1

> <PUBCHEM_CACTVS_TAUTO_COUNT>
1

> <PUBCHEM_CONFORMER_ID>
060C239400000001

> <PUBCHEM_MMFF94_ENERGY>
17.9388

> <PUBCHEM_FEATURE_SELFOVERLAP>
55.861

> <PUBCHEM_SHAPE_FINGERPRINT>
10857977 72 15913324697582113355
11769659 78 18337946801352022674
12932764 1 18341056216082583832
14251710 61 18272093738713927974
14325111 11 18411979135474086178
14350558 41 18412547604529412054
14445660 50 18273220776512264697
15775835 57 18271810098951776362
16945 1 17385731287355900514
177051 138 18411980256402833614
18186145 218 16732706055721171511
19422 9 18335708251686239567
20279233 1 16845576409201951493
20281407 28 18272929427400374627
20653085 51 8214146291234936085
20671657 53 17095514102198219526
20871998 184 18131067130355264199
21061003 4 16343698846087897816
22485316 2 18341889697378029879
23402539 116 18040424487125705364
23552423 10 18187365393808940983
23557571 272 18272654528098014268
3248919 1 17676497146048159952
449060 23 18187081711292873782
5084963 1 17603867771556850316
57812782 119 15140675895148743996

> <PUBCHEM_SHAPE_MULTIPOLES>
234.19
6.3
1.67
0.97
0.27
0.38
-0.03
2.37
0
-0.35
0.15
0.21
-0.08
-0.29

> <PUBCHEM_SHAPE_SELFOVERLAP>
439.897

> <PUBCHEM_SHAPE_VOLUME>
144.5

> <PUBCHEM_COORDINATE_TYPE>
2
5
10