121011383
  -OEChem-05042113263D

 37 37  0     1  0  0  0  0  0999 V2000
   -3.2490    2.3914   -1.4051 Cl  0  0  0  0  0  0  0  0  0  0  0  0
   -6.1464   -1.9044    0.0447 Cl  0  0  0  0  0  0  0  0  0  0  0  0
    3.8566   -1.5673    1.4201 O   0  0  0  0  0  0  0  0  0  0  0  0
    2.0777    0.2987    2.5739 O   0  0  0  0  0  0  0  0  0  0  0  0
    3.0574   -2.3461   -1.3418 O   0  0  0  0  0  0  0  0  0  0  0  0
    4.7502   -0.1430   -2.4093 O   0  0  0  0  0  0  0  0  0  0  0  0
    1.2251    3.3592    0.6996 O   0  0  0  0  0  0  0  0  0  0  0  0
    0.1219    0.3507    0.5084 N   0  0  0  0  0  0  0  0  0  0  0  0
   -0.9431    0.9056   -0.0950 N   0  0  0  0  0  0  0  0  0  0  0  0
    2.7762   -1.0214    0.6614 C   0  0  1  0  0  0  0  0  0  0  0  0
    2.4436    0.3776    1.2042 C   0  0  1  0  0  0  0  0  0  0  0  0
    3.1713   -1.0180   -0.8265 C   0  0  1  0  0  0  0  0  0  0  0  0
    1.2536    0.9888    0.4602 C   0  0  0  0  0  0  0  0  0  0  0  0
    4.6033   -0.5330   -1.0475 C   0  0  0  0  0  0  0  0  0  0  0  0
    1.4817    2.3232   -0.2255 C   0  0  0  0  0  0  0  0  0  0  0  0
   -2.1895    0.2582   -0.0730 C   0  0  0  0  0  0  0  0  0  0  0  0
   -3.3206    0.8426   -0.6432 C   0  0  0  0  0  0  0  0  0  0  0  0
   -2.2823   -0.9948    0.5330 C   0  0  0  0  0  0  0  0  0  0  0  0
   -4.5444    0.1741   -0.6071 C   0  0  0  0  0  0  0  0  0  0  0  0
   -3.5061   -1.6632    0.5693 C   0  0  0  0  0  0  0  0  0  0  0  0
   -4.6371   -1.0788   -0.0007 C   0  0  0  0  0  0  0  0  0  0  0  0
    1.9241   -1.6935    0.8225 H   0  0  0  0  0  0  0  0  0  0  0  0
    3.3169    1.0342    1.1445 H   0  0  0  0  0  0  0  0  0  0  0  0
    2.4664   -0.4164   -1.4100 H   0  0  0  0  0  0  0  0  0  0  0  0
    5.3331   -1.3237   -0.8454 H   0  0  0  0  0  0  0  0  0  0  0  0
    4.8346    0.3441   -0.4374 H   0  0  0  0  0  0  0  0  0  0  0  0
    0.8599    2.4467   -1.1144 H   0  0  0  0  0  0  0  0  0  0  0  0
    2.5273    2.3857   -0.5440 H   0  0  0  0  0  0  0  0  0  0  0  0
    4.0274   -2.4627    1.0809 H   0  0  0  0  0  0  0  0  0  0  0  0
    1.9774    1.2081    2.9038 H   0  0  0  0  0  0  0  0  0  0  0  0
    3.3193   -2.3189   -2.2781 H   0  0  0  0  0  0  0  0  0  0  0  0
   -0.9169    1.8394   -0.4837 H   0  0  0  0  0  0  0  0  0  0  0  0
    5.6677    0.1587   -2.5221 H   0  0  0  0  0  0  0  0  0  0  0  0
    1.4811    4.1950    0.2737 H   0  0  0  0  0  0  0  0  0  0  0  0
   -1.4254   -1.4857    0.9864 H   0  0  0  0  0  0  0  0  0  0  0  0
   -5.4277    0.6280   -1.0514 H   0  0  0  0  0  0  0  0  0  0  0  0
   -3.5638   -2.6391    1.0446 H   0  0  0  0  0  0  0  0  0  0  0  0
  1 17  1  0  0  0  0
  2 21  1  0  0  0  0
  3 10  1  0  0  0  0
  3 29  1  0  0  0  0
  4 11  1  0  0  0  0
  4 30  1  0  0  0  0
  5 12  1  0  0  0  0
  5 31  1  0  0  0  0
  6 14  1  0  0  0  0
  6 33  1  0  0  0  0
  7 15  1  0  0  0  0
  7 34  1  0  0  0  0
  8  9  1  0  0  0  0
  8 13  2  0  0  0  0
  9 16  1  0  0  0  0
  9 32  1  0  0  0  0
 10 11  1  0  0  0  0
 10 12  1  0  0  0  0
 10 22  1  0  0  0  0
 11 13  1  0  0  0  0
 11 23  1  0  0  0  0
 12 14  1  0  0  0  0
 12 24  1  0  0  0  0
 13 15  1  0  0  0  0
 14 25  1  0  0  0  0
 14 26  1  0  0  0  0
 15 27  1  0  0  0  0
 15 28  1  0  0  0  0
 16 17  2  0  0  0  0
 16 18  1  0  0  0  0
 17 19  1  0  0  0  0
 18 20  2  0  0  0  0
 18 35  1  0  0  0  0
 19 21  2  0  0  0  0
 19 36  1  0  0  0  0
 20 21  1  0  0  0  0
 20 37  1  0  0  0  0
M  END
> <PUBCHEM_COMPOUND_CID>
121011383

> <PUBCHEM_CONFORMER_RMSD>
0.8

> <PUBCHEM_CONFORMER_DIVERSEORDER>
1
68
30
46
124
109
62
101
19
167
80
70
132
86
64
50
157
100
180
185
66
135
7
58
173
188
139
48
44
103
94
107
128
153
97
41
15
158
123
146
175
172
119
133
73
40
34
102
21
142
99
145
92
136
61
161
148
176
141
22
9
59
27
179
149
177
118
120
18
122
60
155
33
69
56
152
117
159
121
12
36
164
37
89
88
187
11
110
43
138
115
20
156
116
29
144
160
140
137
178
174
25
28
32
63
87
114
71
79
49
81
134
106
104
14
143
111
170
182
42
76
105
75
84
3
72
26
129
45
51
163
39
183
98
168
78
24
96
169
130
74
55
108
166
52
53
77
82
38
181
83
85
125
162
6
113
65
13
186
147
171
54
16
10
47
93
91
57
150
184
35
112
127
95
165
131
67
126
23
17
2
90
151
5
4
154
8
31

> <PUBCHEM_MMFF94_PARTIAL_CHARGES>
30
1 -0.18
10 0.28
11 0.34
12 0.28
13 0.33
14 0.28
15 0.34
16 0.1
17 0.18
18 -0.15
19 -0.15
2 -0.18
20 -0.15
21 0.18
29 0.4
3 -0.68
30 0.4
31 0.4
32 0.4
33 0.4
34 0.4
35 0.15
36 0.15
37 0.15
4 -0.68
5 -0.68
6 -0.68
7 -0.68
8 -0.49
9 -0.46

> <PUBCHEM_EFFECTIVE_ROTOR_COUNT>
7

> <PUBCHEM_PHARMACOPHORE_FEATURES>
13
1 3 acceptor
1 3 donor
1 4 acceptor
1 4 donor
1 5 acceptor
1 5 donor
1 6 acceptor
1 6 donor
1 7 acceptor
1 7 donor
1 8 acceptor
1 9 donor
6 16 17 18 19 20 21 rings

> <PUBCHEM_HEAVY_ATOM_COUNT>
21

> <PUBCHEM_ATOM_DEF_STEREO_COUNT>
3

> <PUBCHEM_ATOM_UDEF_STEREO_COUNT>
0

> <PUBCHEM_BOND_DEF_STEREO_COUNT>
1

> <PUBCHEM_BOND_UDEF_STEREO_COUNT>
0

> <PUBCHEM_ISOTOPIC_ATOM_COUNT>
0

> <PUBCHEM_COMPONENT_COUNT>
1

> <PUBCHEM_CACTVS_TAUTO_COUNT>
2

> <PUBCHEM_CONFORMER_ID>
07367CB700000001

> <PUBCHEM_MMFF94_ENERGY>
56.2597

> <PUBCHEM_FEATURE_SELFOVERLAP>
65.992

> <PUBCHEM_SHAPE_FINGERPRINT>
10366900 7 18040719194912804499
11128504 68 16587744239624086975
12596602 18 15195278763982677343
12670546 177 18114190730554145980
12707595 3 18411416211195549136
12916754 54 18336539500126368385
13464513 79 18202004348009730518
13533116 47 17203330052572006723
14251740 57 17560520719706692559
14251757 5 18192717743520434349
14251758 9 17703796869294968761
14251764 30 16558209098497425598
14252887 29 17988916761073882394
14386348 63 18344143678750505155
14790565 3 17401208876692286485
14866123 147 17407966487892942851
17349148 13 12607393382707915433
17804303 29 18334289864780904365
1813 80 17131572565063056332
20388580 30 18271820042054430276
20600515 1 18047445873834147064
20645477 70 18340204214692972169
20693207 138 18335134319559796261
20871999 31 18261119538583299828
21033650 10 17460610121178260004
21864079 5 14418403326923946789
221357 26 18408886252457431479
2215653 11 18343297042624034927
23559900 14 18337667620236053293
312423 11 18342186604552368169
3737641 26 16055216570663737958
46194498 28 18337114573981188860
59755656 215 18189332553540342224
6823239 73 18411132563107863848
7364860 26 18269554012787512936
9709674 26 18262512736318054811

> <PUBCHEM_SHAPE_MULTIPOLES>
396.6
11.69
2.64
1.6
6.22
1.57
0
-6.49
3.56
0.53
0.14
-2.52
-0.06
1.34

> <PUBCHEM_SHAPE_SELFOVERLAP>
788.315

> <PUBCHEM_SHAPE_VOLUME>
235.9

> <PUBCHEM_COORDINATE_TYPE>
2
5
10