121009343
  -OEChem-05042113263D

 39 39  0     1  0  0  0  0  0999 V2000
    4.1102   -1.5103    1.6649 O   0  0  0  0  0  0  0  0  0  0  0  0
    2.5337    0.6938    2.4613 O   0  0  0  0  0  0  0  0  0  0  0  0
    3.2582   -2.6314   -0.9601 O   0  0  0  0  0  0  0  0  0  0  0  0
    5.1911   -0.8189   -2.3157 O   0  0  0  0  0  0  0  0  0  0  0  0
    2.0376    3.4884    0.1052 O   0  0  0  0  0  0  0  0  0  0  0  0
   -6.5277   -0.2355   -0.6223 O   0  5  0  0  0  0  0  0  0  0  0  0
   -5.8300   -1.8226    0.7243 O   0  0  0  0  0  0  0  0  0  0  0  0
    0.6156    0.6218    0.3613 N   0  0  0  0  0  0  0  0  0  0  0  0
   -0.3768    1.1828   -0.3507 N   0  0  0  0  0  0  0  0  0  0  0  0
   -5.6119   -0.8131    0.0119 N   0  3  0  0  0  0  0  0  0  0  0  0
    3.1031   -0.9814    0.8006 C   0  0  1  0  0  0  0  0  0  0  0  0
    2.9194    0.5136    1.1067 C   0  0  1  0  0  0  0  0  0  0  0  0
    3.5109   -1.2576   -0.6580 C   0  0  1  0  0  0  0  0  0  0  0  0
    1.8104    1.1206    0.2437 C   0  0  0  0  0  0  0  0  0  0  0  0
    4.9892   -0.9686   -0.9139 C   0  0  0  0  0  0  0  0  0  0  0  0
    2.1891    2.2965   -0.6376 C   0  0  0  0  0  0  0  0  0  0  0  0
   -1.6864    0.6828   -0.2605 C   0  0  0  0  0  0  0  0  0  0  0  0
   -2.7211    1.3080   -0.9565 C   0  0  0  0  0  0  0  0  0  0  0  0
   -1.9524   -0.4383    0.5256 C   0  0  0  0  0  0  0  0  0  0  0  0
   -4.2876   -0.3088   -0.0799 C   0  0  0  0  0  0  0  0  0  0  0  0
   -4.0216    0.8123   -0.8663 C   0  0  0  0  0  0  0  0  0  0  0  0
   -3.2530   -0.9340    0.6160 C   0  0  0  0  0  0  0  0  0  0  0  0
    2.1814   -1.5251    1.0427 H   0  0  0  0  0  0  0  0  0  0  0  0
    3.8595    1.0560    0.9677 H   0  0  0  0  0  0  0  0  0  0  0  0
    2.8814   -0.6859   -1.3479 H   0  0  0  0  0  0  0  0  0  0  0  0
    5.6266   -1.7896   -0.5699 H   0  0  0  0  0  0  0  0  0  0  0  0
    5.3086   -0.0347   -0.4438 H   0  0  0  0  0  0  0  0  0  0  0  0
    1.5939    2.3416   -1.5518 H   0  0  0  0  0  0  0  0  0  0  0  0
    3.2385    2.1962   -0.9331 H   0  0  0  0  0  0  0  0  0  0  0  0
    4.1858   -2.4614    1.4760 H   0  0  0  0  0  0  0  0  0  0  0  0
    2.5297    1.6497    2.6407 H   0  0  0  0  0  0  0  0  0  0  0  0
    3.5306   -2.7820   -1.8816 H   0  0  0  0  0  0  0  0  0  0  0  0
   -0.2424    2.0337   -0.8814 H   0  0  0  0  0  0  0  0  0  0  0  0
    6.1371   -0.6379   -2.4499 H   0  0  0  0  0  0  0  0  0  0  0  0
    2.3885    4.2132   -0.4397 H   0  0  0  0  0  0  0  0  0  0  0  0
   -2.5266    2.1823   -1.5725 H   0  0  0  0  0  0  0  0  0  0  0  0
   -1.1710   -0.9514    1.0799 H   0  0  0  0  0  0  0  0  0  0  0  0
   -4.8025    1.3249   -1.4222 H   0  0  0  0  0  0  0  0  0  0  0  0
   -3.4235   -1.8094    1.2376 H   0  0  0  0  0  0  0  0  0  0  0  0
  1 11  1  0  0  0  0
  1 30  1  0  0  0  0
  2 12  1  0  0  0  0
  2 31  1  0  0  0  0
  3 13  1  0  0  0  0
  3 32  1  0  0  0  0
  4 15  1  0  0  0  0
  4 34  1  0  0  0  0
  5 16  1  0  0  0  0
  5 35  1  0  0  0  0
  6 10  1  0  0  0  0
  7 10  2  0  0  0  0
  8  9  1  0  0  0  0
  8 14  2  0  0  0  0
  9 17  1  0  0  0  0
  9 33  1  0  0  0  0
 10 20  1  0  0  0  0
 11 12  1  0  0  0  0
 11 13  1  0  0  0  0
 11 23  1  0  0  0  0
 12 14  1  0  0  0  0
 12 24  1  0  0  0  0
 13 15  1  0  0  0  0
 13 25  1  0  0  0  0
 14 16  1  0  0  0  0
 15 26  1  0  0  0  0
 15 27  1  0  0  0  0
 16 28  1  0  0  0  0
 16 29  1  0  0  0  0
 17 18  2  0  0  0  0
 17 19  1  0  0  0  0
 18 21  1  0  0  0  0
 18 36  1  0  0  0  0
 19 22  2  0  0  0  0
 19 37  1  0  0  0  0
 20 21  2  0  0  0  0
 20 22  1  0  0  0  0
 21 38  1  0  0  0  0
 22 39  1  0  0  0  0
M  CHG  2   6  -1  10   1
M  END
> <PUBCHEM_COMPOUND_CID>
121009343

> <PUBCHEM_CONFORMER_RMSD>
0.8

> <PUBCHEM_CONFORMER_DIVERSEORDER>
1
80
7
33
68
23
63
84
99
86
22
38
52
93
116
83
11
50
101
64
56
65
97
25
44
91
30
54
106
53
85
47
74
75
19
87
37
100
13
111
98
17
103
114
51
43
39
110
35
88
79
70
28
81
72
20
90
29
27
57
8
58
42
77
113
105
61
18
41
67
69
59
109
36
115
95
117
49
26
94
3
96
34
60
10
15
82
112
40
108
55
66
76
24
102
45
9
16
12
6
32
107
46
31
5
73
21
4
48
92
78
14
89
71
62
104
2

> <PUBCHEM_MMFF94_PARTIAL_CHARGES>
32
1 -0.68
10 0.91
11 0.28
12 0.34
13 0.28
14 0.33
15 0.28
16 0.34
17 0.1
18 -0.15
19 -0.15
2 -0.68
20 0.13
21 -0.15
22 -0.15
3 -0.68
30 0.4
31 0.4
32 0.4
33 0.4
34 0.4
35 0.4
36 0.15
37 0.15
38 0.15
39 0.15
4 -0.68
5 -0.68
6 -0.52
7 -0.52
8 -0.49
9 -0.46

> <PUBCHEM_EFFECTIVE_ROTOR_COUNT>
8

> <PUBCHEM_PHARMACOPHORE_FEATURES>
16
1 1 acceptor
1 1 donor
1 2 acceptor
1 2 donor
1 3 acceptor
1 3 donor
1 4 acceptor
1 4 donor
1 5 acceptor
1 5 donor
1 6 acceptor
1 6 anion
1 7 acceptor
1 8 acceptor
1 9 donor
6 17 18 19 20 21 22 rings

> <PUBCHEM_HEAVY_ATOM_COUNT>
22

> <PUBCHEM_ATOM_DEF_STEREO_COUNT>
3

> <PUBCHEM_ATOM_UDEF_STEREO_COUNT>
0

> <PUBCHEM_BOND_DEF_STEREO_COUNT>
1

> <PUBCHEM_BOND_UDEF_STEREO_COUNT>
0

> <PUBCHEM_ISOTOPIC_ATOM_COUNT>
0

> <PUBCHEM_COMPONENT_COUNT>
1

> <PUBCHEM_CACTVS_TAUTO_COUNT>
2

> <PUBCHEM_CONFORMER_ID>
073674BF00000001

> <PUBCHEM_MMFF94_ENERGY>
65.6667

> <PUBCHEM_FEATURE_SELFOVERLAP>
81.302

> <PUBCHEM_SHAPE_FINGERPRINT>
10366900 7 17894635846446953547
11128504 68 15864073152416338983
11954058 11 16271938077646024276
11961588 58 16516260633879610294
12596602 18 15769766979551466207
12707595 3 18335698321758878376
13464513 79 18342740706909920478
13533116 47 17561080323864544931
13955234 65 18200594833968862928
14251740 57 18060419157221092751
14251757 5 18046068159741610476
14251758 9 17988082180441154641
14251764 30 16844182147328723062
14366163 111 14490192704290672207
14866123 147 17334215628530798945
17492 54 18115895000064349518
17844677 252 18334010593164978449
1813 80 18342177722433308392
18222031 100 18342458119072248558
193927 3 18272374148221555661
20369508 70 18333725823562950576
20388580 30 18340778082917743716
20403669 9 18335135376010883595
20645477 70 18336546113531978765
20871999 31 18115035099744719668
21150785 3 15574720231386762123
2215653 11 18409442575476898831
23016692 55 18409174289759094293
23559900 14 18262237828204057677
239999 70 18260544571548910752
3004659 81 18259985985181983277
312423 11 18341905099263161441
345986 75 16701174149712799978
3737641 26 16700350598835092198
46194498 28 18260553354841628860
465052 167 18342463646468656383
5104073 3 18186797024519753769
54040823 5 18333728014544729184
59755656 215 18114463482732489532
6823239 73 18335419092976094040
7364860 26 18338796831584013880
960060 61 16732700536646115115
9709674 26 18114742762874761003

> <PUBCHEM_SHAPE_MULTIPOLES>
396.72
13.44
2.37
1.49
12.91
1.16
-0.19
-7.31
2.8
-1.99
0.17
-2.32
-0.26
1.38

> <PUBCHEM_SHAPE_SELFOVERLAP>
809.112

> <PUBCHEM_SHAPE_VOLUME>
229.5

> <PUBCHEM_COORDINATE_TYPE>
2
5
10