124383956
  -OEChem-05042113263D

 34 34  0     1  0  0  0  0  0999 V2000
    3.8969    1.6620    0.0943 P   0  0  0  0  0  0  0  0  0  0  0  0
   -3.9897    1.6313   -0.0168 P   0  0  0  0  0  0  0  0  0  0  0  0
   -0.0610   -0.1605    0.3258 O   0  0  0  0  0  0  0  0  0  0  0  0
    0.9114   -0.8633   -1.6925 O   0  0  0  0  0  0  0  0  0  0  0  0
    1.3009   -3.3515   -0.6447 O   0  0  0  0  0  0  0  0  0  0  0  0
   -1.3455   -3.4379    0.8975 O   0  0  0  0  0  0  0  0  0  0  0  0
    2.5229    0.8889   -0.2730 O   0  0  0  0  0  0  0  0  0  0  0  0
   -2.6970    0.8144    0.5137 O   0  0  0  0  0  0  0  0  0  0  0  0
    5.0534    0.6418   -0.3924 O   0  0  0  0  0  0  0  0  0  0  0  0
    3.9551    1.5486    1.7063 O   0  0  0  0  0  0  0  0  0  0  0  0
   -5.2072    0.5821    0.1623 O   0  0  0  0  0  0  0  0  0  0  0  0
   -3.7618    1.6668   -1.6173 O   0  0  0  0  0  0  0  0  0  0  0  0
    4.0031    3.0577   -0.4471 O   0  0  0  0  0  0  0  0  0  0  0  0
   -4.1989    2.9724    0.6236 O   0  0  0  0  0  0  0  0  0  0  0  0
    0.9906   -0.9441   -0.2686 C   0  0  2  0  0  0  0  0  0  0  0  0
    0.6999   -2.3729    0.1795 C   0  0  1  0  0  0  0  0  0  0  0  0
   -0.8097   -2.4110    0.0833 C   0  0  2  0  0  0  0  0  0  0  0  0
   -1.1783   -1.0273    0.6071 C   0  0  2  0  0  0  0  0  0  0  0  0
    2.3447   -0.4348    0.2012 C   0  0  0  0  0  0  0  0  0  0  0  0
   -2.4299   -0.4625   -0.0423 C   0  0  0  0  0  0  0  0  0  0  0  0
    1.0251   -2.5433    1.2137 H   0  0  0  0  0  0  0  0  0  0  0  0
   -1.1436   -2.5812   -0.9465 H   0  0  0  0  0  0  0  0  0  0  0  0
   -1.3062   -1.0271    1.6966 H   0  0  0  0  0  0  0  0  0  0  0  0
    3.1456   -1.0635   -0.2008 H   0  0  0  0  0  0  0  0  0  0  0  0
    2.3946   -0.4319    1.2946 H   0  0  0  0  0  0  0  0  0  0  0  0
   -3.2818   -1.1265    0.1330 H   0  0  0  0  0  0  0  0  0  0  0  0
   -2.2769   -0.3485   -1.1205 H   0  0  0  0  0  0  0  0  0  0  0  0
    1.3921   -0.0667   -1.9738 H   0  0  0  0  0  0  0  0  0  0  0  0
    0.9712   -4.2193   -0.3550 H   0  0  0  0  0  0  0  0  0  0  0  0
   -1.0470   -3.2934    1.8114 H   0  0  0  0  0  0  0  0  0  0  0  0
    5.9908    0.9247   -0.3346 H   0  0  0  0  0  0  0  0  0  0  0  0
    4.6617    2.0265    2.1905 H   0  0  0  0  0  0  0  0  0  0  0  0
   -6.1215    0.8782   -0.0339 H   0  0  0  0  0  0  0  0  0  0  0  0
   -4.3750    2.1941   -2.1724 H   0  0  0  0  0  0  0  0  0  0  0  0
  1  7  1  0  0  0  0
  1  9  1  0  0  0  0
  1 10  1  0  0  0  0
  1 13  2  0  0  0  0
  2  8  1  0  0  0  0
  2 11  1  0  0  0  0
  2 12  1  0  0  0  0
  2 14  2  0  0  0  0
  3 15  1  0  0  0  0
  3 18  1  0  0  0  0
  4 15  1  0  0  0  0
  4 28  1  0  0  0  0
  5 16  1  0  0  0  0
  5 29  1  0  0  0  0
  6 17  1  0  0  0  0
  6 30  1  0  0  0  0
  7 19  1  0  0  0  0
  8 20  1  0  0  0  0
  9 31  1  0  0  0  0
 10 32  1  0  0  0  0
 11 33  1  0  0  0  0
 12 34  1  0  0  0  0
 15 16  1  0  0  0  0
 15 19  1  0  0  0  0
 16 17  1  0  0  0  0
 16 21  1  0  0  0  0
 17 18  1  0  0  0  0
 17 22  1  0  0  0  0
 18 20  1  0  0  0  0
 18 23  1  0  0  0  0
 19 24  1  0  0  0  0
 19 25  1  0  0  0  0
 20 26  1  0  0  0  0
 20 27  1  0  0  0  0
M  END
> <PUBCHEM_COMPOUND_CID>
124383956

> <PUBCHEM_CONFORMER_RMSD>
0.8

> <PUBCHEM_CONFORMER_DIVERSEORDER>
1
8
37
28
13
38
17
24
23
21
43
3
26
40
39
34
32
27
36
15
35
31
16
20
22
30
41
25
19
11
7
5
42
12
4
10
6
9
14
29
33
2
18

> <PUBCHEM_MMFF94_PARTIAL_CHARGES>
27
1 1.51
10 -0.77
11 -0.77
12 -0.77
13 -0.7
14 -0.7
15 0.56
16 0.28
17 0.28
18 0.28
19 0.28
2 1.51
20 0.28
28 0.4
29 0.4
3 -0.56
30 0.4
31 0.5
32 0.5
33 0.5
34 0.5
4 -0.68
5 -0.68
6 -0.68
7 -0.55
8 -0.55
9 -0.77

> <PUBCHEM_EFFECTIVE_ROTOR_COUNT>
7

> <PUBCHEM_PHARMACOPHORE_FEATURES>
16
1 10 acceptor
1 11 acceptor
1 12 acceptor
1 13 acceptor
1 14 acceptor
1 3 acceptor
1 4 acceptor
1 4 donor
1 5 acceptor
1 5 donor
1 6 acceptor
1 6 donor
1 9 acceptor
4 1 9 10 13 anion
4 2 11 12 14 anion
5 3 15 16 17 18 rings

> <PUBCHEM_HEAVY_ATOM_COUNT>
20

> <PUBCHEM_ATOM_DEF_STEREO_COUNT>
4

> <PUBCHEM_ATOM_UDEF_STEREO_COUNT>
0

> <PUBCHEM_BOND_DEF_STEREO_COUNT>
0

> <PUBCHEM_BOND_UDEF_STEREO_COUNT>
0

> <PUBCHEM_ISOTOPIC_ATOM_COUNT>
0

> <PUBCHEM_COMPONENT_COUNT>
1

> <PUBCHEM_CACTVS_TAUTO_COUNT>
1

> <PUBCHEM_CONFORMER_ID>
0769F2D400000001

> <PUBCHEM_MMFF94_ENERGY>
-20.4793

> <PUBCHEM_FEATURE_SELFOVERLAP>
81.332

> <PUBCHEM_SHAPE_FINGERPRINT>
12107183 9 18334846218039086672
12173636 292 18195805400136220622
122479 349 18340205292887908596
12769317 202 18269264686547411505
12788726 201 17684929494206508842
13134695 92 17688310084266232575
13464514 151 18270687467404256686
13590594 115 17403471675531218256
14123255 52 18410294713535291345
14252887 29 11818990773540347440
14848178 96 18411980221879883145
14957384 54 18187356671147354208
15163728 17 18265353813981634348
1741750 31 18410853308507834770
17834072 32 18409732893316933616
1813 80 8430316895610474889
18186145 218 17974011648562253199
20510252 161 18053393381278446114
20645477 56 18336274525564617786
20871998 22 9223221927832663863
212916 134 18269821138462636640
21524375 3 18343300374927942394
22182937 141 18338240478314925657
23558518 356 18115875268389336738
23559900 14 18343309167580585254
474 4 18410855434559175385
5104073 3 18116725011036938969
633830 44 18199470953012777133
7808743 9 18263930019586138800
84936 182 18199748046616541345
90316 7 17618510225565428274
9981440 41 18411132567234344747

> <PUBCHEM_SHAPE_MULTIPOLES>
348.86
9.28
3.84
1.05
0.85
1.37
-0.13
-10.9
0.24
0.11
0.2
-0.12
-0.17
0.59

> <PUBCHEM_SHAPE_SELFOVERLAP>
674.924

> <PUBCHEM_SHAPE_VOLUME>
213.3

> <PUBCHEM_COORDINATE_TYPE>
2
5
10