129630272
  -OEChem-05042113263D

 25 25  0     1  0  0  0  0  0999 V2000
   -0.1025    1.3715   -0.1451 O   0  0  0  0  0  0  0  0  0  0  0  0
   -0.9052   -0.9329   -1.8276 O   0  0  0  0  0  0  0  0  0  0  0  0
    0.8901   -1.8091    1.2111 O   0  0  0  0  0  0  0  0  0  0  0  0
   -1.1051    0.2019    1.6532 O   0  0  0  0  0  0  0  0  0  0  0  0
    3.0142   -0.5712   -0.0098 O   0  0  0  0  0  0  0  0  0  0  0  0
    2.1063    2.1162   -0.2256 O   0  0  0  0  0  0  0  0  0  0  0  0
   -3.4005   -0.0921    0.1275 O   0  0  0  0  0  0  0  0  0  0  0  0
   -0.7039   -0.9842   -0.4159 C   0  0  1  0  0  0  0  0  0  0  0  0
    0.7506   -1.3879   -0.1458 C   0  0  1  0  0  0  0  0  0  0  0  0
   -1.0596    0.3729    0.2336 C   0  0  2  0  0  0  0  0  0  0  0  0
    1.7026   -0.2267   -0.4455 C   0  0  1  0  0  0  0  0  0  0  0  0
    1.2433    1.0697    0.2221 C   0  0  2  0  0  0  0  0  0  0  0  0
   -2.4305    0.8718   -0.2322 C   0  0  0  0  0  0  0  0  0  0  0  0
   -1.3686   -1.7595   -0.0143 H   0  0  0  0  0  0  0  0  0  0  0  0
    1.0388   -2.2441   -0.7677 H   0  0  0  0  0  0  0  0  0  0  0  0
    1.7495   -0.0675   -1.5304 H   0  0  0  0  0  0  0  0  0  0  0  0
    1.3411    1.0103    1.3128 H   0  0  0  0  0  0  0  0  0  0  0  0
   -2.4603    1.0446   -1.3133 H   0  0  0  0  0  0  0  0  0  0  0  0
   -2.6845    1.8177    0.2597 H   0  0  0  0  0  0  0  0  0  0  0  0
   -0.7195   -1.8184   -2.1837 H   0  0  0  0  0  0  0  0  0  0  0  0
    0.2931   -2.5646    1.3465 H   0  0  0  0  0  0  0  0  0  0  0  0
   -1.6809    0.8894    2.0273 H   0  0  0  0  0  0  0  0  0  0  0  0
    3.2687   -1.3918   -0.4653 H   0  0  0  0  0  0  0  0  0  0  0  0
    2.0773    2.8168    0.4479 H   0  0  0  0  0  0  0  0  0  0  0  0
   -4.2634    0.2445   -0.1685 H   0  0  0  0  0  0  0  0  0  0  0  0
  1 10  1  0  0  0  0
  1 12  1  0  0  0  0
  2  8  1  0  0  0  0
  2 20  1  0  0  0  0
  3  9  1  0  0  0  0
  3 21  1  0  0  0  0
  4 10  1  0  0  0  0
  4 22  1  0  0  0  0
  5 11  1  0  0  0  0
  5 23  1  0  0  0  0
  6 12  1  0  0  0  0
  6 24  1  0  0  0  0
  7 13  1  0  0  0  0
  7 25  1  0  0  0  0
  8  9  1  0  0  0  0
  8 10  1  0  0  0  0
  8 14  1  0  0  0  0
  9 11  1  0  0  0  0
  9 15  1  0  0  0  0
 10 13  1  0  0  0  0
 11 12  1  0  0  0  0
 11 16  1  0  0  0  0
 12 17  1  0  0  0  0
 13 18  1  0  0  0  0
 13 19  1  0  0  0  0
M  END
> <PUBCHEM_COMPOUND_CID>
129630272

> <PUBCHEM_CONFORMER_RMSD>
0.6

> <PUBCHEM_CONFORMER_DIVERSEORDER>
1
6
4
7
2
8
5
9
3

> <PUBCHEM_MMFF94_PARTIAL_CHARGES>
19
1 -0.56
10 0.56
11 0.28
12 0.56
13 0.28
2 -0.68
20 0.4
21 0.4
22 0.4
23 0.4
24 0.4
25 0.4
3 -0.68
4 -0.68
5 -0.68
6 -0.68
7 -0.68
8 0.28
9 0.28

> <PUBCHEM_EFFECTIVE_ROTOR_COUNT>
2.2

> <PUBCHEM_PHARMACOPHORE_FEATURES>
14
1 1 acceptor
1 2 acceptor
1 2 donor
1 3 acceptor
1 3 donor
1 4 acceptor
1 4 donor
1 5 acceptor
1 5 donor
1 6 acceptor
1 6 donor
1 7 acceptor
1 7 donor
6 1 8 9 10 11 12 rings

> <PUBCHEM_HEAVY_ATOM_COUNT>
13

> <PUBCHEM_ATOM_DEF_STEREO_COUNT>
4

> <PUBCHEM_ATOM_UDEF_STEREO_COUNT>
1

> <PUBCHEM_BOND_DEF_STEREO_COUNT>
0

> <PUBCHEM_BOND_UDEF_STEREO_COUNT>
0

> <PUBCHEM_ISOTOPIC_ATOM_COUNT>
0

> <PUBCHEM_COMPONENT_COUNT>
1

> <PUBCHEM_CACTVS_TAUTO_COUNT>
1

> <PUBCHEM_CONFORMER_ID>
07BA004000000001

> <PUBCHEM_MMFF94_ENERGY>
32.6759

> <PUBCHEM_FEATURE_SELFOVERLAP>
71.166

> <PUBCHEM_SHAPE_FINGERPRINT>
12423570 1 18130780114490985246
13024252 1 17676214541547934438
14713566 1 17846778520310515794
14993402 34 18201718397122910878
15557651 10 17095234834903218590
15775835 57 18270687578952347084
16945 1 18269573683473464586
18185500 45 18342728590253141086
21040471 1 18194683889422236180
23552423 10 18339632446965996559
241688 4 17479469945018251426
2748010 2 18265341792225364318
5084963 1 18272656726946832745
528862 383 18335976519327246267
528886 8 18410284830820694594
63268167 104 18342182180303270136
68250623 7 18198627828951612975

> <PUBCHEM_SHAPE_MULTIPOLES>
226.45
3.51
1.72
1.1
0.99
0.27
-0.04
0.5
0.04
-0.84
0.01
0.26
-0.35
-0.29

> <PUBCHEM_SHAPE_SELFOVERLAP>
457.661

> <PUBCHEM_SHAPE_VOLUME>
129.5

> <PUBCHEM_COORDINATE_TYPE>
2
5
10