129674402
  -OEChem-05042113263D

 39 40  0     1  0  0  0  0  0999 V2000
    1.0587    0.3166    0.9405 O   0  0  0  0  0  0  0  0  0  0  0  0
   -0.5928    0.1612   -0.7859 O   0  0  0  0  0  0  0  0  0  0  0  0
   -0.8832   -0.9402    1.3412 O   0  0  0  0  0  0  0  0  0  0  0  0
    1.5282   -0.9378   -2.3650 O   0  0  0  0  0  0  0  0  0  0  0  0
    3.5795   -1.2415    0.6144 O   0  0  0  0  0  0  0  0  0  0  0  0
   -0.1097   -2.6624   -0.8959 O   0  0  0  0  0  0  0  0  0  0  0  0
    1.8025    1.5458   -0.9552 O   0  0  0  0  0  0  0  0  0  0  0  0
    2.3457    2.6505    1.5329 O   0  0  0  0  0  0  0  0  0  0  0  0
   -1.0217    2.0926    0.4118 O   0  0  0  0  0  0  0  0  0  0  0  0
   -2.8050   -1.6083    2.2736 O   0  0  0  0  0  0  0  0  0  0  0  0
   -3.2508    2.4845   -1.1954 N   0  0  0  0  0  0  0  0  0  0  0  0
    1.9647   -1.4822   -1.1223 C   0  0  1  0  0  0  0  0  0  0  0  0
    2.9264   -0.5159   -0.4261 C   0  0  1  0  0  0  0  0  0  0  0  0
    0.7763   -1.7895   -0.2070 C   0  0  1  0  0  0  0  0  0  0  0  0
    2.1862    0.7133    0.1440 C   0  0  2  0  0  0  0  0  0  0  0  0
    0.0670   -0.5132    0.2961 C   0  0  2  0  0  0  0  0  0  0  0  0
    3.0889    1.5435    1.0628 C   0  0  0  0  0  0  0  0  0  0  0  0
   -2.6602    1.1520   -1.1226 C   0  0  2  0  0  0  0  0  0  0  0  0
   -3.5548    0.2054   -0.3080 C   0  0  0  0  0  0  0  0  0  0  0  0
   -1.3267    1.2608   -0.4305 C   0  0  0  0  0  0  0  0  0  0  0  0
   -2.9243   -1.1721   -0.0638 C   0  0  0  0  0  0  0  0  0  0  0  0
   -2.1947   -1.2632    1.2604 C   0  0  0  0  0  0  0  0  0  0  0  0
    2.4733   -2.4247   -1.3602 H   0  0  0  0  0  0  0  0  0  0  0  0
    3.6926   -0.1774   -1.1347 H   0  0  0  0  0  0  0  0  0  0  0  0
    1.1408   -2.3420    0.6691 H   0  0  0  0  0  0  0  0  0  0  0  0
    3.9625    1.9214    0.5219 H   0  0  0  0  0  0  0  0  0  0  0  0
    3.4140    0.9684    1.9355 H   0  0  0  0  0  0  0  0  0  0  0  0
    2.3184   -0.7744   -2.9075 H   0  0  0  0  0  0  0  0  0  0  0  0
    4.0824   -1.9631    0.1998 H   0  0  0  0  0  0  0  0  0  0  0  0
    0.3898   -3.4600   -1.1406 H   0  0  0  0  0  0  0  0  0  0  0  0
    1.7114    2.4567   -0.6283 H   0  0  0  0  0  0  0  0  0  0  0  0
   -2.5150    0.7757   -2.1418 H   0  0  0  0  0  0  0  0  0  0  0  0
   -4.4953    0.0655   -0.8569 H   0  0  0  0  0  0  0  0  0  0  0  0
   -3.8169    0.6645    0.6548 H   0  0  0  0  0  0  0  0  0  0  0  0
   -2.3187   -1.5240   -0.8999 H   0  0  0  0  0  0  0  0  0  0  0  0
   -3.7374   -1.9087    0.0039 H   0  0  0  0  0  0  0  0  0  0  0  0
    2.9334    3.1683    2.1091 H   0  0  0  0  0  0  0  0  0  0  0  0
   -4.1668    2.4289   -1.6389 H   0  0  0  0  0  0  0  0  0  0  0  0
   -2.6804    3.0800   -1.7948 H   0  0  0  0  0  0  0  0  0  0  0  0
  1 15  1  0  0  0  0
  1 16  1  0  0  0  0
  2 16  1  0  0  0  0
  2 20  1  0  0  0  0
  3 16  1  0  0  0  0
  3 22  1  0  0  0  0
  4 12  1  0  0  0  0
  4 28  1  0  0  0  0
  5 13  1  0  0  0  0
  5 29  1  0  0  0  0
  6 14  1  0  0  0  0
  6 30  1  0  0  0  0
  7 15  1  0  0  0  0
  7 31  1  0  0  0  0
  8 17  1  0  0  0  0
  8 37  1  0  0  0  0
  9 20  2  0  0  0  0
 10 22  2  0  0  0  0
 11 18  1  0  0  0  0
 11 38  1  0  0  0  0
 11 39  1  0  0  0  0
 12 13  1  0  0  0  0
 12 14  1  0  0  0  0
 12 23  1  0  0  0  0
 13 15  1  0  0  0  0
 13 24  1  0  0  0  0
 14 16  1  0  0  0  0
 14 25  1  0  0  0  0
 15 17  1  0  0  0  0
 17 26  1  0  0  0  0
 17 27  1  0  0  0  0
 18 19  1  0  0  0  0
 18 20  1  0  0  0  0
 18 32  1  0  0  0  0
 19 21  1  0  0  0  0
 19 33  1  0  0  0  0
 19 34  1  0  0  0  0
 21 22  1  0  0  0  0
 21 35  1  0  0  0  0
 21 36  1  0  0  0  0
M  END
> <PUBCHEM_COMPOUND_CID>
129674402

> <PUBCHEM_CONFORMER_RMSD>
0.6

> <PUBCHEM_CONFORMER_DIVERSEORDER>
1
12
9
15
10
19
20
22
16
5
6
17
13
21
7
14
8
18
4
2
11
3

> <PUBCHEM_MMFF94_PARTIAL_CHARGES>
28
1 -0.56
10 -0.57
11 -0.99
12 0.28
13 0.28
14 0.28
15 0.56
16 0.84
17 0.28
18 0.33
2 -0.43
20 0.66
21 0.06
22 0.66
28 0.4
29 0.4
3 -0.43
30 0.4
31 0.4
37 0.4
38 0.36
39 0.36
4 -0.68
5 -0.68
6 -0.68
7 -0.68
8 -0.68
9 -0.57

> <PUBCHEM_EFFECTIVE_ROTOR_COUNT>
3

> <PUBCHEM_PHARMACOPHORE_FEATURES>
16
1 1 acceptor
1 10 acceptor
1 11 cation
1 11 donor
1 4 acceptor
1 4 donor
1 5 acceptor
1 5 donor
1 6 acceptor
1 6 donor
1 7 acceptor
1 7 donor
1 8 acceptor
1 8 donor
1 9 acceptor
6 1 12 13 14 15 16 rings

> <PUBCHEM_HEAVY_ATOM_COUNT>
22

> <PUBCHEM_ATOM_DEF_STEREO_COUNT>
5

> <PUBCHEM_ATOM_UDEF_STEREO_COUNT>
1

> <PUBCHEM_BOND_DEF_STEREO_COUNT>
0

> <PUBCHEM_BOND_UDEF_STEREO_COUNT>
0

> <PUBCHEM_ISOTOPIC_ATOM_COUNT>
0

> <PUBCHEM_COMPONENT_COUNT>
1

> <PUBCHEM_CACTVS_TAUTO_COUNT>
1

> <PUBCHEM_CONFORMER_ID>
07BAACA200000001

> <PUBCHEM_MMFF94_ENERGY>
68.4695

> <PUBCHEM_FEATURE_SELFOVERLAP>
81.273

> <PUBCHEM_SHAPE_FINGERPRINT>
10608611 8 18410565172016073669
10863032 1 17676498237223210382
10871710 139 16825298425494558692
11132069 177 18262230127411948961
12077114 3 18335410292561717378
12423570 1 18050296056669339162
12716301 132 17967257476838129897
13083527 12 16821374264231694859
13134695 92 18130501925818227772
13140716 1 18410577258032867953
13294875 104 17537417545075849985
13538477 17 16877663482652154803
14614273 12 17841705515452095318
14787075 74 15654111786286524080
14817 1 17896312695878584591
15219456 202 18411696599429443921
15852999 172 17969496018256837095
15881359 60 18194122047480582995
16945 1 18054786187358338581
18186145 218 17774726458348720704
19049666 15 18335984172969478393
19786989 88 17774725371611186046
20511035 2 18335414682118527300
21639500 275 17775281711594075848
22112679 90 15936410048177493478
22182313 1 18411144644972141044
22802520 49 18336559204861270387
2334 1 18410295851701754741
23493267 7 17967534562268599536
23526113 38 18127977395428356854
23557571 272 17969233385475883283
23559900 14 18113052740398838586
238 59 17987778770449194045
25 1 18048592617063757021
2748010 2 18410298020649579365
6049 1 18337691753224486863
77492 1 15985109604146522291
81228 2 18040444304221009761
8809292 202 18187929434905465227

> <PUBCHEM_SHAPE_MULTIPOLES>
389.08
5.6
2.61
1.64
0.71
0.63
-0.12
1.04
-0.4
0.06
-0.07
0.16
-0.27
1.97

> <PUBCHEM_SHAPE_SELFOVERLAP>
815.028

> <PUBCHEM_SHAPE_VOLUME>
210.6

> <PUBCHEM_COORDINATE_TYPE>
2
5
10