129640559
  -OEChem-05042113263D

 36 36  0     1  0  0  0  0  0999 V2000
   -1.5510   -1.7644    0.3035 O   0  0  0  0  0  0  0  0  0  0  0  0
   -2.1508   -0.2385   -1.9930 O   0  0  0  0  0  0  0  0  0  0  0  0
   -4.1291   -1.3735   -0.7876 O   0  0  0  0  0  0  0  0  0  0  0  0
   -0.2945    2.5153    0.5111 O   0  0  0  0  0  0  0  0  0  0  0  0
   -5.8882    0.0724    1.1457 O   0  0  0  0  0  0  0  0  0  0  0  0
    0.3957    0.1407   -1.7178 O   0  0  0  0  0  0  0  0  0  0  0  0
    2.3297    2.6103    0.2565 O   0  0  0  0  0  0  0  0  0  0  0  0
   -2.2407   -0.5169    0.4087 C   0  0  1  0  0  0  0  0  0  0  0  0
   -1.8041    0.3764   -0.7596 C   0  0  1  0  0  0  0  0  0  0  0  0
   -3.7546   -0.7886    0.4653 C   0  0  1  0  0  0  0  0  0  0  0  0
   -0.2852    0.5478   -0.7746 C   0  0  0  0  0  0  0  0  0  0  0  0
    0.3485    1.2546    0.4134 C   0  0  1  0  0  0  0  0  0  0  0  0
   -4.5997    0.4651    0.6816 C   0  0  0  0  0  0  0  0  0  0  0  0
    1.8515    1.4785    0.3106 C   0  0  0  0  0  0  0  0  0  0  0  0
    2.7704    0.3026    0.2833 C   0  0  0  0  0  0  0  0  0  0  0  0
    2.4174   -0.8746    0.9430 C   0  0  0  0  0  0  0  0  0  0  0  0
    3.9818    0.3806   -0.4037 C   0  0  0  0  0  0  0  0  0  0  0  0
    3.2757   -1.9738    0.9158 C   0  0  0  0  0  0  0  0  0  0  0  0
    4.8402   -0.7185   -0.4310 C   0  0  0  0  0  0  0  0  0  0  0  0
    4.4871   -1.8957    0.2289 C   0  0  0  0  0  0  0  0  0  0  0  0
   -1.9375   -0.0645    1.3590 H   0  0  0  0  0  0  0  0  0  0  0  0
   -2.2769    1.3617   -0.7290 H   0  0  0  0  0  0  0  0  0  0  0  0
   -3.9680   -1.5395    1.2352 H   0  0  0  0  0  0  0  0  0  0  0  0
    0.1362    0.7160    1.3383 H   0  0  0  0  0  0  0  0  0  0  0  0
   -4.7313    1.0315   -0.2457 H   0  0  0  0  0  0  0  0  0  0  0  0
   -4.1563    1.1076    1.4484 H   0  0  0  0  0  0  0  0  0  0  0  0
   -1.7930   -2.3000    1.0782 H   0  0  0  0  0  0  0  0  0  0  0  0
   -1.8128   -1.1504   -1.9789 H   0  0  0  0  0  0  0  0  0  0  0  0
   -5.0842   -1.5531   -0.7498 H   0  0  0  0  0  0  0  0  0  0  0  0
   -0.0930    3.0194   -0.2961 H   0  0  0  0  0  0  0  0  0  0  0  0
   -6.4025    0.8867    1.2799 H   0  0  0  0  0  0  0  0  0  0  0  0
    1.4887   -0.9684    1.4964 H   0  0  0  0  0  0  0  0  0  0  0  0
    4.2710    1.2879   -0.9275 H   0  0  0  0  0  0  0  0  0  0  0  0
    3.0022   -2.8898    1.4313 H   0  0  0  0  0  0  0  0  0  0  0  0
    5.7830   -0.6583   -0.9667 H   0  0  0  0  0  0  0  0  0  0  0  0
    5.1556   -2.7514    0.2079 H   0  0  0  0  0  0  0  0  0  0  0  0
  1  8  1  0  0  0  0
  1 27  1  0  0  0  0
  2  9  1  0  0  0  0
  2 28  1  0  0  0  0
  3 10  1  0  0  0  0
  3 29  1  0  0  0  0
  4 12  1  0  0  0  0
  4 30  1  0  0  0  0
  5 13  1  0  0  0  0
  5 31  1  0  0  0  0
  6 11  2  0  0  0  0
  7 14  2  0  0  0  0
  8  9  1  0  0  0  0
  8 10  1  0  0  0  0
  8 21  1  0  0  0  0
  9 11  1  0  0  0  0
  9 22  1  0  0  0  0
 10 13  1  0  0  0  0
 10 23  1  0  0  0  0
 11 12  1  0  0  0  0
 12 14  1  0  0  0  0
 12 24  1  0  0  0  0
 13 25  1  0  0  0  0
 13 26  1  0  0  0  0
 14 15  1  0  0  0  0
 15 16  2  0  0  0  0
 15 17  1  0  0  0  0
 16 18  1  0  0  0  0
 16 32  1  0  0  0  0
 17 19  2  0  0  0  0
 17 33  1  0  0  0  0
 18 20  2  0  0  0  0
 18 34  1  0  0  0  0
 19 20  1  0  0  0  0
 19 35  1  0  0  0  0
 20 36  1  0  0  0  0
M  END
> <PUBCHEM_COMPOUND_CID>
129640559

> <PUBCHEM_CONFORMER_RMSD>
1.2

> <PUBCHEM_CONFORMER_DIVERSEORDER>
1
18
10
57
34
27
52
64
22
29
8
76
3
56
46
47
68
9
25
20
80
12
83
69
79
2
35
5
21
77
75
72
90
43
13
74
92
7
78
62
60
55
31
93
24
50
87
67
32
91
17
71
86
89
38
85
4
84
53
14
45
40
73
16
59
11
82
70
28
33
19
63
58
26
36
6
54
23
15
65
49
66
44
37
39
88
51
41
42
81
48
30
61

> <PUBCHEM_MMFF94_PARTIAL_CHARGES>
30
1 -0.68
10 0.28
11 0.45
12 0.4
13 0.28
14 0.42
15 0.09
16 -0.15
17 -0.15
18 -0.15
19 -0.15
2 -0.68
20 -0.15
27 0.4
28 0.4
29 0.4
3 -0.68
30 0.4
31 0.4
32 0.15
33 0.15
34 0.15
35 0.15
36 0.15
4 -0.68
5 -0.68
6 -0.57
7 -0.57
8 0.28
9 0.34

> <PUBCHEM_EFFECTIVE_ROTOR_COUNT>
7

> <PUBCHEM_PHARMACOPHORE_FEATURES>
14
1 1 acceptor
1 1 donor
1 12 anion
1 2 acceptor
1 2 donor
1 3 acceptor
1 3 donor
1 4 acceptor
1 4 donor
1 5 acceptor
1 5 donor
1 6 acceptor
1 7 acceptor
6 15 16 17 18 19 20 rings

> <PUBCHEM_HEAVY_ATOM_COUNT>
20

> <PUBCHEM_ATOM_DEF_STEREO_COUNT>
3

> <PUBCHEM_ATOM_UDEF_STEREO_COUNT>
1

> <PUBCHEM_BOND_DEF_STEREO_COUNT>
0

> <PUBCHEM_BOND_UDEF_STEREO_COUNT>
0

> <PUBCHEM_ISOTOPIC_ATOM_COUNT>
0

> <PUBCHEM_COMPONENT_COUNT>
1

> <PUBCHEM_CACTVS_TAUTO_COUNT>
1001

> <PUBCHEM_CONFORMER_ID>
07BA286F00000001

> <PUBCHEM_MMFF94_ENERGY>
39.1741

> <PUBCHEM_FEATURE_SELFOVERLAP>
71.114

> <PUBCHEM_SHAPE_FINGERPRINT>
10062212 137 17775280603983221239
11140007 195 16845299310970923604
11725454 13 12895070657055017657
12107183 9 18125165927000564129
12553582 1 18340476790798223310
12596602 18 17274816991226773730
12633257 1 18341896294400681075
12670546 56 18201714098367205481
12788726 201 18129957680041777352
128620 24 13551189991613945091
12892183 10 18267589198741342553
13103583 49 18271538537060278723
13167823 11 18271524320692421135
13533116 47 18197211662876626955
13675066 3 16630526245355152927
14178342 30 17553181608445386448
14251764 30 16877953736869209779
14251764 38 12967140388734439179
14617045 38 18040444273650271874
15188451 53 16701719640908597239
15375462 189 18335416859577444458
15527383 91 18408045100113160905
15885798 251 18411983541952588297
17349148 13 17203324550787017805
1813 80 18187942633239778564
200 152 18260266313856054546
20281475 54 18335136539857207143
20291156 8 18412539890931360344
20645477 70 18337096977558095190
20832881 197 18334854970290872713
20871999 31 16588019069980254134
21267235 1 18337398132797928338
212916 134 16200432447066932743
21524375 3 8286193964215259008
21713013 43 17604426289420591958
2215653 11 18186512203483625823
22950370 63 18410015424702228578
23402539 116 17775282751667478529
23557571 272 16660638553505188460
23559900 14 18335415824342795416
2871803 45 17748822995354291962
328317 168 9079108960170107931
3323516 105 18114178644690209066
345986 75 18266730303665379995
351380 180 11887954332803510002
4072396 5 17275391975947239041
4325135 7 7925910366249332625
465052 167 18343027691633443615
5104073 3 17988367087033256403
6049 1 18041262336013040948
83771 10 18334293167225587668
94968 8 18333729113861320738

> <PUBCHEM_SHAPE_MULTIPOLES>
370.51
10.38
2.1
1.2
5.9
0.6
0.45
-4.33
-1.74
-1.55
-0.5
0.64
-0.06
-0.38

> <PUBCHEM_SHAPE_SELFOVERLAP>
762.955

> <PUBCHEM_SHAPE_VOLUME>
210.1

> <PUBCHEM_COORDINATE_TYPE>
2
5
10