129689148
  -OEChem-05042113263D

 36 37  0     1  0  0  0  0  0999 V2000
   -0.4279   -0.3974    0.8512 O   0  0  0  0  0  0  0  0  0  0  0  0
    0.5415    0.5370   -1.1728 O   0  0  0  0  0  0  0  0  0  0  0  0
    0.9679    1.5129    1.0170 O   0  0  0  0  0  0  0  0  0  0  0  0
   -2.1148    0.8295   -2.0098 O   0  0  0  0  0  0  0  0  0  0  0  0
   -3.3043    0.2073    1.3546 O   0  0  0  0  0  0  0  0  0  0  0  0
   -0.7747    2.9202   -0.7010 O   0  0  0  0  0  0  0  0  0  0  0  0
   -1.2141   -1.6563   -1.0051 O   0  0  0  0  0  0  0  0  0  0  0  0
   -0.6991   -3.0698    1.3251 O   0  0  0  0  0  0  0  0  0  0  0  0
    1.7266   -0.7052   -2.6200 O   0  0  0  0  0  0  0  0  0  0  0  0
    2.6061    1.2892    2.5407 O   0  0  0  0  0  0  0  0  0  0  0  0
    3.3415   -1.7643   -0.7925 N   0  0  0  0  0  0  0  0  0  0  0  0
   -2.3769    1.1240   -0.6410 C   0  0  1  0  0  0  0  0  0  0  0  0
   -2.7572   -0.1644    0.0906 C   0  0  1  0  0  0  0  0  0  0  0  0
   -1.1559    1.7561    0.0297 C   0  0  1  0  0  0  0  0  0  0  0  0
   -1.5389   -1.0972    0.2713 C   0  0  2  0  0  0  0  0  0  0  0  0
    0.0351    0.7795    0.1654 C   0  0  2  0  0  0  0  0  0  0  0  0
   -1.8526   -2.2594    1.2199 C   0  0  0  0  0  0  0  0  0  0  0  0
    2.3174   -0.8506   -0.2739 C   0  0  1  0  0  0  0  0  0  0  0  0
    2.9995    0.3339    0.3874 C   0  0  0  0  0  0  0  0  0  0  0  0
    1.5194   -0.3567   -1.4610 C   0  0  0  0  0  0  0  0  0  0  0  0
    2.1616    1.0318    1.4243 C   0  0  0  0  0  0  0  0  0  0  0  0
   -3.2036    1.8444   -0.6242 H   0  0  0  0  0  0  0  0  0  0  0  0
   -3.5354   -0.6964   -0.4709 H   0  0  0  0  0  0  0  0  0  0  0  0
   -1.4441    2.0946    1.0340 H   0  0  0  0  0  0  0  0  0  0  0  0
   -2.6708   -2.8754    0.8329 H   0  0  0  0  0  0  0  0  0  0  0  0
   -2.1003   -1.9038    2.2249 H   0  0  0  0  0  0  0  0  0  0  0  0
   -2.9252    0.4490   -2.3891 H   0  0  0  0  0  0  0  0  0  0  0  0
   -4.0994    0.7412    1.1860 H   0  0  0  0  0  0  0  0  0  0  0  0
   -1.5435    3.5150   -0.7292 H   0  0  0  0  0  0  0  0  0  0  0  0
   -0.7542   -2.5000   -0.8586 H   0  0  0  0  0  0  0  0  0  0  0  0
    1.6858   -1.4210    0.4098 H   0  0  0  0  0  0  0  0  0  0  0  0
    3.3318    1.0857   -0.3395 H   0  0  0  0  0  0  0  0  0  0  0  0
    3.9000   -0.0067    0.9172 H   0  0  0  0  0  0  0  0  0  0  0  0
   -0.9161   -3.8032    1.9256 H   0  0  0  0  0  0  0  0  0  0  0  0
    3.9053   -2.1190   -0.0207 H   0  0  0  0  0  0  0  0  0  0  0  0
    2.8908   -2.5787   -1.2090 H   0  0  0  0  0  0  0  0  0  0  0  0
  1 15  1  0  0  0  0
  1 16  1  0  0  0  0
  2 16  1  0  0  0  0
  2 20  1  0  0  0  0
  3 16  1  0  0  0  0
  3 21  1  0  0  0  0
  4 12  1  0  0  0  0
  4 27  1  0  0  0  0
  5 13  1  0  0  0  0
  5 28  1  0  0  0  0
  6 14  1  0  0  0  0
  6 29  1  0  0  0  0
  7 15  1  0  0  0  0
  7 30  1  0  0  0  0
  8 17  1  0  0  0  0
  8 34  1  0  0  0  0
  9 20  2  0  0  0  0
 10 21  2  0  0  0  0
 11 18  1  0  0  0  0
 11 35  1  0  0  0  0
 11 36  1  0  0  0  0
 12 13  1  0  0  0  0
 12 14  1  0  0  0  0
 12 22  1  0  0  0  0
 13 15  1  0  0  0  0
 13 23  1  0  0  0  0
 14 16  1  0  0  0  0
 14 24  1  0  0  0  0
 15 17  1  0  0  0  0
 17 25  1  0  0  0  0
 17 26  1  0  0  0  0
 18 19  1  0  0  0  0
 18 20  1  0  0  0  0
 18 31  1  0  0  0  0
 19 21  1  0  0  0  0
 19 32  1  0  0  0  0
 19 33  1  0  0  0  0
M  END
> <PUBCHEM_COMPOUND_CID>
129689148

> <PUBCHEM_CONFORMER_RMSD>
0.6

> <PUBCHEM_CONFORMER_DIVERSEORDER>
1
9
8
5
13
10
15
4
7
12
17
16
14
3
6
11
2

> <PUBCHEM_MMFF94_PARTIAL_CHARGES>
28
1 -0.56
10 -0.57
11 -0.99
12 0.28
13 0.28
14 0.28
15 0.56
16 0.84
17 0.28
18 0.33
19 0.06
2 -0.43
20 0.66
21 0.66
27 0.4
28 0.4
29 0.4
3 -0.43
30 0.4
34 0.4
35 0.36
36 0.36
4 -0.68
5 -0.68
6 -0.68
7 -0.68
8 -0.68
9 -0.57

> <PUBCHEM_EFFECTIVE_ROTOR_COUNT>
2.8

> <PUBCHEM_PHARMACOPHORE_FEATURES>
17
1 1 acceptor
1 10 acceptor
1 11 cation
1 11 donor
1 4 acceptor
1 4 donor
1 5 acceptor
1 5 donor
1 6 acceptor
1 6 donor
1 7 acceptor
1 7 donor
1 8 acceptor
1 8 donor
1 9 acceptor
6 1 12 13 14 15 16 rings
7 2 3 16 18 19 20 21 rings

> <PUBCHEM_HEAVY_ATOM_COUNT>
21

> <PUBCHEM_ATOM_DEF_STEREO_COUNT>
4

> <PUBCHEM_ATOM_UDEF_STEREO_COUNT>
2

> <PUBCHEM_BOND_DEF_STEREO_COUNT>
0

> <PUBCHEM_BOND_UDEF_STEREO_COUNT>
0

> <PUBCHEM_ISOTOPIC_ATOM_COUNT>
0

> <PUBCHEM_COMPONENT_COUNT>
1

> <PUBCHEM_CACTVS_TAUTO_COUNT>
1

> <PUBCHEM_CONFORMER_ID>
07BAE63C00000001

> <PUBCHEM_MMFF94_ENERGY>
61.6027

> <PUBCHEM_FEATURE_SELFOVERLAP>
86.347

> <PUBCHEM_SHAPE_FINGERPRINT>
10863032 1 16845281778909276429
11471102 22 17775562048678850448
11582403 64 16758238863239468344
12507560 18 17842571647020133442
12633257 1 18340756118096108104
12716301 132 18262798441421093481
13083527 12 17330261183554211907
13294875 104 17187821148677577840
13898156 1 17167582691421107092
14817 1 18261375780679952500
15207287 21 18055037043381483177
15375462 175 18041858224170452971
15852999 172 18189593012925153495
15881359 60 17409049910383174194
16752209 62 17821727217698382495
16945 1 18260541199772677809
19049666 15 18269833125489467120
20511035 2 17985853611772906647
20645476 183 16226052180221689027
20905425 154 17833556695671526959
21421861 104 16962404184252068195
21731516 1 17387132185560575715
22344851 341 17471596333904419019
22721475 48 18200888317494401468
23559900 14 18337390432032186910
2748010 2 18341898549047320039
3286 77 17988931037439516447
576247 118 16913173241705996694
598444 67 18338525122982697531
77492 1 16515680026793610144
81228 2 18336543906277420025

> <PUBCHEM_SHAPE_MULTIPOLES>
368.5
4.53
2.49
1.97
1.01
0.65
0.24
0.44
-0.58
-0.83
-0.5
0.94
-0.05
1.54

> <PUBCHEM_SHAPE_SELFOVERLAP>
775.72

> <PUBCHEM_SHAPE_VOLUME>
199.8

> <PUBCHEM_COORDINATE_TYPE>
2
5
10