129635219
  -OEChem-05042113263D

 30 30  0     1  0  0  0  0  0999 V2000
   -3.4408   -0.4850    0.0132 P   0  0  0  0  0  0  0  0  0  0  0  0
    0.5861   -1.1325    0.1226 O   0  0  0  0  0  0  0  0  0  0  0  0
    0.5081    0.3503   -1.7223 O   0  0  0  0  0  0  0  0  0  0  0  0
    1.1624    1.2895    1.7614 O   0  0  0  0  0  0  0  0  0  0  0  0
    3.2588    0.8109   -1.1788 O   0  0  0  0  0  0  0  0  0  0  0  0
    4.2391   -1.3503    0.2447 O   0  0  0  0  0  0  0  0  0  0  0  0
   -1.9339   -0.2946   -0.5468 O   0  0  0  0  0  0  0  0  0  0  0  0
   -1.2993    1.9523   -0.2812 O   0  0  0  0  0  0  0  0  0  0  0  0
   -3.2502   -0.8547    1.5757 O   0  0  0  0  0  0  0  0  0  0  0  0
   -4.0479    1.0138    0.0410 O   0  0  0  0  0  0  0  0  0  0  0  0
   -4.2558   -1.4733   -0.7700 O   0  0  0  0  0  0  0  0  0  0  0  0
    0.3868    0.2245   -0.3020 C   0  0  2  0  0  0  0  0  0  0  0  0
    1.4244    1.1596    0.3648 C   0  0  2  0  0  0  0  0  0  0  0  0
    2.8616    0.6517    0.1825 C   0  0  1  0  0  0  0  0  0  0  0  0
    2.9556   -0.8285    0.5617 C   0  0  1  0  0  0  0  0  0  0  0  0
    1.8882   -1.6411   -0.1574 C   0  0  0  0  0  0  0  0  0  0  0  0
   -1.0430    0.6076    0.0909 C   0  0  2  0  0  0  0  0  0  0  0  0
    1.3425    2.1586   -0.0820 H   0  0  0  0  0  0  0  0  0  0  0  0
    3.5696    1.2232    0.7938 H   0  0  0  0  0  0  0  0  0  0  0  0
    2.8096   -0.9199    1.6450 H   0  0  0  0  0  0  0  0  0  0  0  0
    2.0583   -1.6751   -1.2403 H   0  0  0  0  0  0  0  0  0  0  0  0
    1.9205   -2.6818    0.1841 H   0  0  0  0  0  0  0  0  0  0  0  0
   -1.1661    0.5106    1.1752 H   0  0  0  0  0  0  0  0  0  0  0  0
   -0.3475    0.1169   -2.1202 H   0  0  0  0  0  0  0  0  0  0  0  0
    1.8085    1.9189    2.1245 H   0  0  0  0  0  0  0  0  0  0  0  0
    3.2074    1.7588   -1.3895 H   0  0  0  0  0  0  0  0  0  0  0  0
    4.2532   -2.2834    0.5181 H   0  0  0  0  0  0  0  0  0  0  0  0
   -2.0084    2.2801    0.2975 H   0  0  0  0  0  0  0  0  0  0  0  0
   -4.0308   -1.1467    2.0930 H   0  0  0  0  0  0  0  0  0  0  0  0
   -5.0058    1.1346    0.2139 H   0  0  0  0  0  0  0  0  0  0  0  0
  1  7  1  0  0  0  0
  1  9  1  0  0  0  0
  1 10  1  0  0  0  0
  1 11  2  0  0  0  0
  2 12  1  0  0  0  0
  2 16  1  0  0  0  0
  3 12  1  0  0  0  0
  3 24  1  0  0  0  0
  4 13  1  0  0  0  0
  4 25  1  0  0  0  0
  5 14  1  0  0  0  0
  5 26  1  0  0  0  0
  6 15  1  0  0  0  0
  6 27  1  0  0  0  0
  7 17  1  0  0  0  0
  8 17  1  0  0  0  0
  8 28  1  0  0  0  0
  9 29  1  0  0  0  0
 10 30  1  0  0  0  0
 12 13  1  0  0  0  0
 12 17  1  0  0  0  0
 13 14  1  0  0  0  0
 13 18  1  0  0  0  0
 14 15  1  0  0  0  0
 14 19  1  0  0  0  0
 15 16  1  0  0  0  0
 15 20  1  0  0  0  0
 16 21  1  0  0  0  0
 16 22  1  0  0  0  0
 17 23  1  0  0  0  0
M  END
> <PUBCHEM_COMPOUND_CID>
129635219

> <PUBCHEM_CONFORMER_RMSD>
0.6

> <PUBCHEM_CONFORMER_DIVERSEORDER>
3
47
30
58
26
50
21
33
14
60
9
59
49
40
8
39
42
25
45
54
15
55
48
28
17
51
35
31
56
16
32
24
44
37
52
41
36
10
38
12
23
5
43
29
1
20
22
34
53
6
2
18
13
57
4
11
7
19
46
27

> <PUBCHEM_MMFF94_PARTIAL_CHARGES>
24
1 1.51
10 -0.77
11 -0.7
12 0.56
13 0.28
14 0.28
15 0.28
16 0.28
17 0.56
2 -0.56
24 0.4
25 0.4
26 0.4
27 0.4
28 0.4
29 0.5
3 -0.68
30 0.5
4 -0.68
5 -0.68
6 -0.68
7 -0.55
8 -0.68
9 -0.77

> <PUBCHEM_EFFECTIVE_ROTOR_COUNT>
4.2

> <PUBCHEM_PHARMACOPHORE_FEATURES>
16
1 10 acceptor
1 11 acceptor
1 2 acceptor
1 3 acceptor
1 3 donor
1 4 acceptor
1 4 donor
1 5 acceptor
1 5 donor
1 6 acceptor
1 6 donor
1 8 acceptor
1 8 donor
1 9 acceptor
4 1 9 10 11 anion
6 2 12 13 14 15 16 rings

> <PUBCHEM_HEAVY_ATOM_COUNT>
17

> <PUBCHEM_ATOM_DEF_STEREO_COUNT>
4

> <PUBCHEM_ATOM_UDEF_STEREO_COUNT>
1

> <PUBCHEM_BOND_DEF_STEREO_COUNT>
0

> <PUBCHEM_BOND_UDEF_STEREO_COUNT>
0

> <PUBCHEM_ISOTOPIC_ATOM_COUNT>
0

> <PUBCHEM_COMPONENT_COUNT>
1

> <PUBCHEM_CACTVS_TAUTO_COUNT>
1

> <PUBCHEM_CONFORMER_ID>
07BA139300000003

> <PUBCHEM_MMFF94_ENERGY>
6.2363

> <PUBCHEM_FEATURE_SELFOVERLAP>
81.304

> <PUBCHEM_SHAPE_FINGERPRINT>
10219947 1 18040434420847017030
11132069 177 18131346401708023790
11615757 297 17704074023049217787
11769659 78 18334851684651485730
12032990 46 18271525291381254318
12251169 10 17489300919200792919
124424 183 18272364240122543385
12500047 106 18338227172991448357
12932764 1 18202561812999556581
13296908 3 17603872229869878347
13705890 14 17240771700251500810
14144814 61 17703792522271067675
14252887 29 17131835352631540358
15309172 13 16845568708225415079
15375462 189 18343303656298995475
15501101 241 18409726270397780836
15775835 57 18273495705858387852
16945 1 18411416250098142180
18186145 218 16298105397603649845
19422 9 18411140225060370709
200 152 18272080591876400783
20281407 28 18341895190604226241
20281475 54 18413671301049206599
20645477 70 18335696126756667039
21501502 16 18336550408530988240
23402539 116 17603863369162383948
23559900 14 18261104158553417048
3286 77 18201146732654433130
5104073 3 18411134731886955281
581208 293 18336260227766169466
8809292 202 18187086135256972963

> <PUBCHEM_SHAPE_MULTIPOLES>
295.01
7.24
1.64
1.15
4.13
0.02
0.1
2.27
0.17
-0.16
0.08
0
-0.15
-0.11

> <PUBCHEM_SHAPE_SELFOVERLAP>
583.547

> <PUBCHEM_SHAPE_VOLUME>
176.1

> <PUBCHEM_COORDINATE_TYPE>
2
5
10