129634109
  -OEChem-05042113263D

 33 32  0     1  0  0  0  0  0999 V2000
   -0.8256    0.7121    1.8455 O   0  0  0  0  0  0  0  0  0  0  0  0
    0.6126    2.0057   -1.2032 O   0  0  0  0  0  0  0  0  0  0  0  0
   -1.6023   -0.3216   -1.6137 O   0  0  0  0  0  0  0  0  0  0  0  0
    1.7684   -0.2421   -1.6764 O   0  0  0  0  0  0  0  0  0  0  0  0
   -3.1441   -2.1422    0.0954 O   0  0  0  0  0  0  0  0  0  0  0  0
    1.2825   -2.3521    0.2056 O   0  0  0  0  0  0  0  0  0  0  0  0
   -0.8186    0.8477    0.4184 C   0  0  1  0  0  0  0  0  0  0  0  0
    0.6496    1.1562   -0.0476 C   0  0  1  0  0  0  0  0  0  0  0  0
   -1.4981   -0.4189   -0.1941 C   0  0  1  0  0  0  0  0  0  0  0  0
   -1.7352    2.0602    0.1135 C   0  0  0  0  0  0  0  0  0  0  0  0
    1.4715   -0.0756   -0.4890 C   0  0  0  0  0  0  0  0  0  0  0  0
    1.4612    1.9403    0.9952 C   0  0  0  0  0  0  0  0  0  0  0  0
   -2.8855   -0.7609    0.3490 C   0  0  0  0  0  0  0  0  0  0  0  0
    1.8774   -1.1140    0.5569 C   0  0  2  0  0  0  0  0  0  0  0  0
    3.3863   -1.2949    0.6446 C   0  0  0  0  0  0  0  0  0  0  0  0
   -0.8762   -1.2913    0.0159 H   0  0  0  0  0  0  0  0  0  0  0  0
   -1.3060    2.9839    0.5182 H   1  0  0  0  0  0  0  0  0  0  0  0
   -2.7076    1.9542    0.6081 H   0  0  0  0  0  0  0  0  0  0  0  0
   -1.9110    2.2016   -0.9573 H   0  0  0  0  0  0  0  0  0  0  0  0
    0.9884    2.9028    1.2196 H   1  0  0  0  0  0  0  0  0  0  0  0
    1.5962    1.3951    1.9337 H   0  0  0  0  0  0  0  0  0  0  0  0
    2.4605    2.1741    0.6073 H   0  0  0  0  0  0  0  0  0  0  0  0
   -2.9473   -0.6148    1.4308 H   0  0  0  0  0  0  0  0  0  0  0  0
   -3.6679   -0.1780   -0.1471 H   0  0  0  0  0  0  0  0  0  0  0  0
    1.4901   -0.8273    1.5361 H   0  0  0  0  0  0  0  0  0  0  0  0
   -0.4469   -0.1543    2.0680 H   0  0  0  0  0  0  0  0  0  0  0  0
    0.1112    1.5479   -1.8988 H   0  0  0  0  0  0  0  0  0  0  0  0
   -0.7043   -0.3635   -1.9816 H   0  0  0  0  0  0  0  0  0  0  0  0
    3.7937   -1.6565   -0.3061 H   1  0  0  0  0  0  0  0  0  0  0  0
    3.8827   -0.3517    0.8925 H   0  0  0  0  0  0  0  0  0  0  0  0
    3.6424   -2.0405    1.4045 H   0  0  0  0  0  0  0  0  0  0  0  0
   -4.0303   -2.3341    0.4470 H   0  0  0  0  0  0  0  0  0  0  0  0
    1.4586   -2.9788    0.9280 H   0  0  0  0  0  0  0  0  0  0  0  0
  1  7  1  0  0  0  0
  1 26  1  0  0  0  0
  2  8  1  0  0  0  0
  2 27  1  0  0  0  0
  3  9  1  0  0  0  0
  3 28  1  0  0  0  0
  4 11  2  0  0  0  0
  5 13  1  0  0  0  0
  5 32  1  0  0  0  0
  6 14  1  0  0  0  0
  6 33  1  0  0  0  0
  7  8  1  0  0  0  0
  7  9  1  0  0  0  0
  7 10  1  0  0  0  0
  8 11  1  0  0  0  0
  8 12  1  0  0  0  0
  9 13  1  0  0  0  0
  9 16  1  0  0  0  0
 10 17  1  0  0  0  0
 10 18  1  0  0  0  0
 10 19  1  0  0  0  0
 11 14  1  0  0  0  0
 12 20  1  0  0  0  0
 12 21  1  0  0  0  0
 12 22  1  0  0  0  0
 13 23  1  0  0  0  0
 13 24  1  0  0  0  0
 14 15  1  0  0  0  0
 14 25  1  0  0  0  0
 15 29  1  0  0  0  0
 15 30  1  0  0  0  0
 15 31  1  0  0  0  0
M  ISO  3  17   2  20   2  29   2
M  END
> <PUBCHEM_COMPOUND_CID>
129634109

> <PUBCHEM_CONFORMER_RMSD>
0.8

> <PUBCHEM_CONFORMER_DIVERSEORDER>
1
136
111
126
88
31
160
159
24
157
116
150
40
73
165
105
33
97
15
41
151
42
56
122
113
36
91
39
86
81
128
163
18
117
131
6
158
48
65
90
139
72
3
76
104
100
38
62
34
57
125
155
115
17
29
110
35
123
135
79
59
164
21
144
67
119
162
166
145
94
68
154
10
54
106
7
112
25
43
141
28
70
108
58
8
27
146
69
140
129
114
93
5
63
124
89
71
103
132
161
142
107
134
80
32
78
101
19
130
102
49
147
84
37
152
46
52
156
92
16
133
53
95
50
143
45
149
83
11
26
61
30
55
96
44
74
82
99
60
4
138
109
77
75
51
23
12
22
137
121
66
13
85
148
118
2
64
9
127
20
98
47
120
14
87
153

> <PUBCHEM_MMFF94_PARTIAL_CHARGES>
17
1 -0.68
11 0.45
13 0.28
14 0.34
2 -0.68
26 0.4
27 0.4
28 0.4
3 -0.68
32 0.4
33 0.4
4 -0.57
5 -0.68
6 -0.68
7 0.28
8 0.34
9 0.28

> <PUBCHEM_EFFECTIVE_ROTOR_COUNT>
5

> <PUBCHEM_PHARMACOPHORE_FEATURES>
11
1 1 acceptor
1 1 donor
1 2 acceptor
1 2 donor
1 3 acceptor
1 3 donor
1 4 acceptor
1 5 acceptor
1 5 donor
1 6 acceptor
1 6 donor

> <PUBCHEM_HEAVY_ATOM_COUNT>
15

> <PUBCHEM_ATOM_DEF_STEREO_COUNT>
3

> <PUBCHEM_ATOM_UDEF_STEREO_COUNT>
1

> <PUBCHEM_BOND_DEF_STEREO_COUNT>
0

> <PUBCHEM_BOND_UDEF_STEREO_COUNT>
0

> <PUBCHEM_ISOTOPIC_ATOM_COUNT>
3

> <PUBCHEM_COMPONENT_COUNT>
1

> <PUBCHEM_CACTVS_TAUTO_COUNT>
4

> <PUBCHEM_CONFORMER_ID>
07BA0F3D00000001

> <PUBCHEM_MMFF94_ENERGY>
42.9369

> <PUBCHEM_FEATURE_SELFOVERLAP>
55.846

> <PUBCHEM_SHAPE_FINGERPRINT>
11067466 332 18122349248460623631
12382932 28 18125154935947164058
12423570 1 17561361807283308660
13024252 1 16373839590942164360
14115302 16 18187929422010027079
14817 1 17841445734386891124
15001771 113 18408886217839314707
16945 1 18197508328683113337
20645477 70 18129101302708212351
20653085 51 9150587163520835930
20653091 64 18340215171149386544
20871998 184 18058161722299356862
21501502 16 18409171004067427800
232386 152 18339927008913864326
23419403 2 17827316073798688244
23552423 10 18263937681738742405
2748010 2 18339347643384525524
528862 383 18127127713215680735

> <PUBCHEM_SHAPE_MULTIPOLES>
273.48
4.12
2.4
1.3
0
0.05
-0.21
-2.63
0.53
-0.3
0.25
0.13
0.26
-0.16

> <PUBCHEM_SHAPE_SELFOVERLAP>
530.696

> <PUBCHEM_SHAPE_VOLUME>
165.7

> <PUBCHEM_COORDINATE_TYPE>
2
5
10