129642367
  -OEChem-05042113263D

 36 35  0     1  0  0  0  0  0999 V2000
    0.3587   -1.9445   -0.2824 O   0  0  0  0  0  0  0  0  0  0  0  0
    2.2212    1.1387    0.4320 O   0  0  0  0  0  0  0  0  0  0  0  0
    0.2461    1.5604   -1.3065 O   0  0  0  0  0  0  0  0  0  0  0  0
    3.6755   -1.1807   -0.0317 O   0  0  0  0  0  0  0  0  0  0  0  0
   -1.3408    1.4345    0.8956 O   0  0  0  0  0  0  0  0  0  0  0  0
   -3.5345   -0.0728    1.0285 O   0  0  0  0  0  0  0  0  0  0  0  0
    0.8406   -0.6241   -0.5141 C   0  0  2  0  0  0  0  0  0  0  0  0
    1.6420   -0.1363    0.7071 C   0  0  1  0  0  0  0  0  0  0  0  0
   -0.3056    0.2953   -0.9628 C   0  0  1  0  0  0  0  0  0  0  0  0
    2.7731   -1.1001    1.0671 C   0  0  0  0  0  0  0  0  0  0  0  0
   -1.4084    0.5228    0.0698 C   0  0  0  0  0  0  0  0  0  0  0  0
   -2.6085   -0.4029    0.0130 C   0  0  0  0  0  0  0  0  0  0  0  0
    0.1286   -2.6340   -1.5021 C   0  0  0  0  0  0  0  0  0  0  0  0
    2.5569    1.8220    1.6295 C   0  0  0  0  0  0  0  0  0  0  0  0
   -0.5698    2.2466   -2.2457 C   0  0  0  0  0  0  0  0  0  0  0  0
   -4.6752   -0.9250    1.0026 C   0  0  0  0  0  0  0  0  0  0  0  0
    1.5560   -0.6412   -1.3504 H   0  0  0  0  0  0  0  0  0  0  0  0
    0.9593   -0.0747    1.5647 H   0  0  0  0  0  0  0  0  0  0  0  0
   -0.7836   -0.1275   -1.8536 H   0  0  0  0  0  0  0  0  0  0  0  0
    3.3392   -0.7707    1.9420 H   0  0  0  0  0  0  0  0  0  0  0  0
    2.3889   -2.1036    1.2760 H   0  0  0  0  0  0  0  0  0  0  0  0
   -2.2618   -1.4312    0.1523 H   0  0  0  0  0  0  0  0  0  0  0  0
   -3.0795   -0.2920   -0.9694 H   0  0  0  0  0  0  0  0  0  0  0  0
   -0.1035   -3.6746   -1.2567 H   1  0  0  0  0  0  0  0  0  0  0  0
    1.0203   -2.6308   -2.1369 H   0  0  0  0  0  0  0  0  0  0  0  0
   -0.7290   -2.2275   -2.0429 H   0  0  0  0  0  0  0  0  0  0  0  0
    2.8672    2.8357    1.3591 H   1  0  0  0  0  0  0  0  0  0  0  0
    3.3957    1.3491    2.1454 H   0  0  0  0  0  0  0  0  0  0  0  0
    1.6926    1.9027    2.2963 H   0  0  0  0  0  0  0  0  0  0  0  0
   -0.1114    3.2189   -2.4466 H   1  0  0  0  0  0  0  0  0  0  0  0
   -1.5762    2.4174   -1.8519 H   0  0  0  0  0  0  0  0  0  0  0  0
   -0.6214    1.6925   -3.1883 H   0  0  0  0  0  0  0  0  0  0  0  0
    4.3758   -1.8064    0.2203 H   0  0  0  0  0  0  0  0  0  0  0  0
   -5.3501   -0.6202    1.8067 H   1  0  0  0  0  0  0  0  0  0  0  0
   -4.3788   -1.9652    1.1688 H   0  0  0  0  0  0  0  0  0  0  0  0
   -5.2014   -0.8299    0.0479 H   0  0  0  0  0  0  0  0  0  0  0  0
  1  7  1  0  0  0  0
  1 13  1  0  0  0  0
  2  8  1  0  0  0  0
  2 14  1  0  0  0  0
  3  9  1  0  0  0  0
  3 15  1  0  0  0  0
  4 10  1  0  0  0  0
  4 33  1  0  0  0  0
  5 11  2  0  0  0  0
  6 12  1  0  0  0  0
  6 16  1  0  0  0  0
  7  8  1  0  0  0  0
  7  9  1  0  0  0  0
  7 17  1  0  0  0  0
  8 10  1  0  0  0  0
  8 18  1  0  0  0  0
  9 11  1  0  0  0  0
  9 19  1  0  0  0  0
 10 20  1  0  0  0  0
 10 21  1  0  0  0  0
 11 12  1  0  0  0  0
 12 22  1  0  0  0  0
 12 23  1  0  0  0  0
 13 24  1  0  0  0  0
 13 25  1  0  0  0  0
 13 26  1  0  0  0  0
 14 27  1  0  0  0  0
 14 28  1  0  0  0  0
 14 29  1  0  0  0  0
 15 30  1  0  0  0  0
 15 31  1  0  0  0  0
 15 32  1  0  0  0  0
 16 34  1  0  0  0  0
 16 35  1  0  0  0  0
 16 36  1  0  0  0  0
M  ISO  4  24   2  27   2  30   2  34   2
M  END
> <PUBCHEM_COMPOUND_CID>
129642367

> <PUBCHEM_CONFORMER_RMSD>
0.8

> <PUBCHEM_CONFORMER_DIVERSEORDER>
1
73
88
13
98
57
117
26
90
122
103
120
83
59
85
24
29
76
106
102
74
56
110
23
27
114
51
81
95
97
89
119
37
21
16
63
11
93
48
38
87
39
64
124
52
68
84
60
69
19
111
100
104
94
54
28
65
121
116
34
9
86
115
47
113
101
62
43
5
31
44
72
91
109
4
49
55
118
10
78
7
41
18
46
32
123
40
108
61
92
36
80
12
50
70
20
35
67
107
22
71
6
2
66
58
79
112
82
15
17
77
45
105
33
53
14
96
75
25
42
3
30
99
8

> <PUBCHEM_MMFF94_PARTIAL_CHARGES>
17
1 -0.56
10 0.28
11 0.45
12 0.34
13 0.28
14 0.28
15 0.28
16 0.28
2 -0.56
3 -0.56
33 0.4
4 -0.68
5 -0.57
6 -0.56
7 0.28
8 0.28
9 0.34

> <PUBCHEM_EFFECTIVE_ROTOR_COUNT>
9

> <PUBCHEM_PHARMACOPHORE_FEATURES>
7
1 1 acceptor
1 2 acceptor
1 3 acceptor
1 4 acceptor
1 4 donor
1 5 acceptor
1 6 acceptor

> <PUBCHEM_HEAVY_ATOM_COUNT>
16

> <PUBCHEM_ATOM_DEF_STEREO_COUNT>
3

> <PUBCHEM_ATOM_UDEF_STEREO_COUNT>
0

> <PUBCHEM_BOND_DEF_STEREO_COUNT>
0

> <PUBCHEM_BOND_UDEF_STEREO_COUNT>
0

> <PUBCHEM_ISOTOPIC_ATOM_COUNT>
4

> <PUBCHEM_COMPONENT_COUNT>
1

> <PUBCHEM_CACTVS_TAUTO_COUNT>
3

> <PUBCHEM_CONFORMER_ID>
07BA2F7F00000001

> <PUBCHEM_MMFF94_ENERGY>
46.8852

> <PUBCHEM_FEATURE_SELFOVERLAP>
35.552

> <PUBCHEM_SHAPE_FINGERPRINT>
10610426 29 14996545335443081561
12138202 97 17173193310210515764
12251169 10 18343016687943049186
12423570 1 17972851899543598612
13380535 21 18127682941223923442
14817 1 17052461856792469684
15501101 241 18411421704432398977
16945 1 18130785616402211159
17844478 74 18188197733075550984
18175812 5 18335412439913516085
20511035 2 18121232123177624859
20711985 327 17895205397991831745
20820808 20 12031795746852759511
21061003 4 18057597668866322938
23532345 42 17967530202955967409
23557571 272 17968374533977184669
23558518 356 15518440950565849885
2748010 2 18120907595802225588
31174 14 18410283723004202920
3286 77 18342177735022454202
394222 165 17610931227886258577
53812653 11 18201721747582692438
68419 9 17400369339048815399
81228 2 17907269385421914742
9999458 23 17989215849241871255

> <PUBCHEM_SHAPE_MULTIPOLES>
294.06
5.64
2.41
1.73
4.27
0.2
-0.58
1.51
3.91
-0.81
-1.16
0.08
-0.72
0.78

> <PUBCHEM_SHAPE_SELFOVERLAP>
556.199

> <PUBCHEM_SHAPE_VOLUME>
182.6

> <PUBCHEM_COORDINATE_TYPE>
2
5
10