129732645
  -OEChem-05042113263D

 47 48  0     1  0  0  0  0  0999 V2000
    2.4650   -0.7661    0.8344 O   0  0  0  0  0  0  0  0  0  0  0  0
    0.3497    0.3004    0.7561 O   0  0  0  0  0  0  0  0  0  0  0  0
   -2.6312   -1.3644    1.6818 O   0  0  0  0  0  0  0  0  0  0  0  0
   -4.0518   -1.8822   -0.7568 O   0  0  0  0  0  0  0  0  0  0  0  0
   -4.1482    2.3865    0.1230 O   0  0  0  0  0  0  0  0  0  0  0  0
   -4.9639    0.4955   -1.8585 O   0  0  0  0  0  0  0  0  0  0  0  0
    3.3015    2.7871   -1.1718 O   0  0  0  0  0  0  0  0  0  0  0  0
    4.6992    0.4699   -0.5812 O   0  0  0  0  0  0  0  0  0  0  0  0
    1.5160    2.7746    1.0728 O   0  0  0  0  0  0  0  0  0  0  0  0
    1.4902   -1.1052   -1.3089 O   0  0  0  0  0  0  0  0  0  0  0  0
   -0.1631   -1.1844    2.4500 O   0  0  0  0  0  0  0  0  0  0  0  0
    2.9056   -3.2521   -0.2207 O   0  0  0  0  0  0  0  0  0  0  0  0
   -1.8475   -0.5012    0.8671 C   0  0  0  0  0  0  0  0  0  0  0  0
   -1.7772   -1.0678   -0.5585 C   0  0  0  0  0  0  0  0  0  0  0  0
   -2.4258    0.9152    0.8894 C   0  0  0  0  0  0  0  0  0  0  0  0
   -3.1109   -0.9595   -1.3070 C   0  0  2  0  0  0  0  0  0  0  0  0
   -3.7711    1.0101    0.1662 C   0  0  2  0  0  0  0  0  0  0  0  0
   -3.6687    0.4668   -1.2611 C   0  0  0  0  0  0  0  0  0  0  0  0
    2.5843    1.6218   -0.7720 C   0  0  1  0  0  0  0  0  0  0  0  0
    3.3848    0.3654   -1.1337 C   0  0  2  0  0  0  0  0  0  0  0  0
    2.3497    1.6704    0.7364 C   0  0  2  0  0  0  0  0  0  0  0  0
    2.7028   -0.8985   -0.5781 C   0  0  1  0  0  0  0  0  0  0  0  0
    1.6961    0.3756    1.2223 C   0  0  2  0  0  0  0  0  0  0  0  0
   -0.4720   -0.5215    1.4690 C   0  0  0  0  0  0  0  0  0  0  0  0
    3.5863   -2.1364   -0.7603 C   0  0  0  0  0  0  0  0  0  0  0  0
   -1.4645   -2.1194   -0.5260 H   0  0  0  0  0  0  0  0  0  0  0  0
   -1.0304   -0.5221   -1.1465 H   0  0  0  0  0  0  0  0  0  0  0  0
   -1.7309    1.6361    0.4379 H   0  0  0  0  0  0  0  0  0  0  0  0
   -2.5605    1.2511    1.9264 H   0  0  0  0  0  0  0  0  0  0  0  0
   -2.9728   -1.2567   -2.3532 H   0  0  0  0  0  0  0  0  0  0  0  0
   -4.5540    0.4785    0.7198 H   0  0  0  0  0  0  0  0  0  0  0  0
   -3.0312    1.1349   -1.8540 H   0  0  0  0  0  0  0  0  0  0  0  0
    1.6245    1.6405   -1.3020 H   0  0  0  0  0  0  0  0  0  0  0  0
    3.4978    0.3082   -2.2224 H   0  0  0  0  0  0  0  0  0  0  0  0
    3.3067    1.8278    1.2479 H   0  0  0  0  0  0  0  0  0  0  0  0
    1.6868    0.4082    2.3193 H   0  0  0  0  0  0  0  0  0  0  0  0
    3.7784   -2.3317   -1.8204 H   0  0  0  0  0  0  0  0  0  0  0  0
    4.5355   -2.0421   -0.2240 H   0  0  0  0  0  0  0  0  0  0  0  0
   -2.3029   -2.2732    1.5720 H   0  0  0  0  0  0  0  0  0  0  0  0
   -3.6636   -2.7714   -0.8220 H   0  0  0  0  0  0  0  0  0  0  0  0
   -4.2216    2.6993    1.0409 H   0  0  0  0  0  0  0  0  0  0  0  0
   -4.8753    0.1551   -2.7651 H   0  0  0  0  0  0  0  0  0  0  0  0
    3.4538    2.7215   -2.1300 H   0  0  0  0  0  0  0  0  0  0  0  0
    4.6411    0.3317    0.3790 H   0  0  0  0  0  0  0  0  0  0  0  0
    1.3870    2.7627    2.0365 H   0  0  0  0  0  0  0  0  0  0  0  0
    1.2655   -2.0497   -1.2602 H   0  0  0  0  0  0  0  0  0  0  0  0
    3.4762   -4.0285   -0.3512 H   0  0  0  0  0  0  0  0  0  0  0  0
  1 22  1  0  0  0  0
  1 23  1  0  0  0  0
  2 23  1  0  0  0  0
  2 24  1  0  0  0  0
  3 13  1  0  0  0  0
  3 39  1  0  0  0  0
  4 16  1  0  0  0  0
  4 40  1  0  0  0  0
  5 17  1  0  0  0  0
  5 41  1  0  0  0  0
  6 18  1  0  0  0  0
  6 42  1  0  0  0  0
  7 19  1  0  0  0  0
  7 43  1  0  0  0  0
  8 20  1  0  0  0  0
  8 44  1  0  0  0  0
  9 21  1  0  0  0  0
  9 45  1  0  0  0  0
 10 22  1  0  0  0  0
 10 46  1  0  0  0  0
 11 24  2  0  0  0  0
 12 25  1  0  0  0  0
 12 47  1  0  0  0  0
 13 14  1  0  0  0  0
 13 15  1  0  0  0  0
 13 24  1  0  0  0  0
 14 16  1  0  0  0  0
 14 26  1  0  0  0  0
 14 27  1  0  0  0  0
 15 17  1  0  0  0  0
 15 28  1  0  0  0  0
 15 29  1  0  0  0  0
 16 18  1  0  0  0  0
 16 30  1  0  0  0  0
 17 18  1  0  0  0  0
 17 31  1  0  0  0  0
 18 32  1  0  0  0  0
 19 20  1  0  0  0  0
 19 21  1  0  0  0  0
 19 33  1  0  0  0  0
 20 22  1  0  0  0  0
 20 34  1  0  0  0  0
 21 23  1  0  0  0  0
 21 35  1  0  0  0  0
 22 25  1  0  0  0  0
 23 36  1  0  0  0  0
 25 37  1  0  0  0  0
 25 38  1  0  0  0  0
M  END
> <PUBCHEM_COMPOUND_CID>
129732645

> <PUBCHEM_CONFORMER_RMSD>
1.4

> <PUBCHEM_CONFORMER_DIVERSEORDER>
1
6
30
51
12
22
44
25
34
26
2
48
31
24
27
17
23
21
32
46
49
35
39
33
5
28
47
38
18
16
40
36
8
37
11
43
41
15
19
50
42
7
29
3
20
14
45
10
4
9
13

> <PUBCHEM_MMFF94_PARTIAL_CHARGES>
32
1 -0.56
10 -0.68
11 -0.57
12 -0.68
13 0.34
16 0.28
17 0.28
18 0.28
19 0.28
2 -0.43
20 0.28
21 0.28
22 0.56
23 0.56
24 0.66
25 0.28
3 -0.68
39 0.4
4 -0.68
40 0.4
41 0.4
42 0.4
43 0.4
44 0.4
45 0.4
46 0.4
47 0.4
5 -0.68
6 -0.68
7 -0.68
8 -0.68
9 -0.68

> <PUBCHEM_EFFECTIVE_ROTOR_COUNT>
6.4

> <PUBCHEM_PHARMACOPHORE_FEATURES>
22
1 1 acceptor
1 10 acceptor
1 10 donor
1 11 acceptor
1 12 acceptor
1 12 donor
1 3 acceptor
1 3 donor
1 4 acceptor
1 4 donor
1 5 acceptor
1 5 donor
1 6 acceptor
1 6 donor
1 7 acceptor
1 7 donor
1 8 acceptor
1 8 donor
1 9 acceptor
1 9 donor
6 1 19 20 21 22 23 rings
6 13 14 15 16 17 18 rings

> <PUBCHEM_HEAVY_ATOM_COUNT>
25

> <PUBCHEM_ATOM_DEF_STEREO_COUNT>
2

> <PUBCHEM_ATOM_UDEF_STEREO_COUNT>
5

> <PUBCHEM_BOND_DEF_STEREO_COUNT>
0

> <PUBCHEM_BOND_UDEF_STEREO_COUNT>
0

> <PUBCHEM_ISOTOPIC_ATOM_COUNT>
0

> <PUBCHEM_COMPONENT_COUNT>
1

> <PUBCHEM_CACTVS_TAUTO_COUNT>
1

> <PUBCHEM_CONFORMER_ID>
07BB902500000001

> <PUBCHEM_MMFF94_ENERGY>
64.496

> <PUBCHEM_FEATURE_SELFOVERLAP>
111.768

> <PUBCHEM_SHAPE_FINGERPRINT>
10165383 225 16662076637225481931
10498660 4 17385997390987693389
11640471 11 15430585285617183345
116883 192 17983302525832463308
12173636 292 17894640261910704075
12363563 72 14549014386217660707
12553582 1 16702034053509413522
12596599 1 18260257547711661679
12633257 1 17313651750673286564
12707595 3 15410889686810960291
12714826 92 16917072183168896283
13004483 165 17833544601334154898
13134695 92 18343021056515496224
13224815 77 18342173422880641473
13464514 151 18186529817065398344
15163728 17 16735262502551505924
15664445 248 16980080968477536517
16752209 62 15913334576434240191
18186145 218 17676493825853895403
18981168 100 17095526218459216889
192875 21 17846210008321945807
19862831 5 18410009953061710097
20626108 58 17631153230447161382
21864079 5 17240478083539791125
22393880 68 18060143162912639852
22646028 28 14692574325068874309
23557571 272 17605564468528339595
23559900 14 18272640242994596207
238 59 18269559514708651522
2838139 119 16155706650970040844
3082319 5 18202282515476267361
4280585 95 17627532444969728646
474 4 18040147440033735493
5161694 15 18334297530722644807
5281201 14 18335145292884433999
633830 44 18114745941214012769
7399639 24 17906177604418247817
7808743 9 16081950259326236428
9882013 296 9078817585499482147
9981440 41 17978500159526785232

> <PUBCHEM_SHAPE_MULTIPOLES>
444.06
8.94
2.65
1.75
3.7
0.21
-0.4
0.71
4.25
-1.9
0.21
0.69
-0.18
-0.06

> <PUBCHEM_SHAPE_SELFOVERLAP>
926.781

> <PUBCHEM_SHAPE_VOLUME>
246.2

> <PUBCHEM_COORDINATE_TYPE>
2
5
10