129730157
  -OEChem-05042113263D

 48 49  0     1  0  0  0  0  0999 V2000
    4.1940    0.6938    1.2091 O   0  0  0  0  0  0  0  0  0  0  0  0
    3.3852   -2.1223    1.5898 O   0  0  0  0  0  0  0  0  0  0  0  0
    3.9050    1.5917   -1.4096 O   0  0  0  0  0  0  0  0  0  0  0  0
    2.0817    2.4585    0.6758 O   0  0  0  0  0  0  0  0  0  0  0  0
    1.7408   -3.9789   -0.8901 O   0  0  0  0  0  0  0  0  0  0  0  0
    0.3191   -1.6789    0.3948 N   0  0  0  0  0  0  0  0  0  0  0  0
   -0.5740   -2.2930   -0.3979 N   0  0  0  0  0  0  0  0  0  0  0  0
    3.5570   -0.1503    0.2393 C   0  0  1  0  0  0  0  0  0  0  0  0
    2.6028   -1.0925    0.9850 C   0  0  1  0  0  0  0  0  0  0  0  0
    2.9030    0.7452   -0.8362 C   0  0  1  0  0  0  0  0  0  0  0  0
    1.5802   -1.8305    0.1238 C   0  0  0  0  0  0  0  0  0  0  0  0
    1.7516    1.6062   -0.3677 C   0  0  0  0  0  0  0  0  0  0  0  0
    2.1331   -2.6303   -1.0437 C   0  0  0  0  0  0  0  0  0  0  0  0
    0.5002    1.5960   -0.8644 C   0  0  0  0  0  0  0  0  0  0  0  0
   -0.6263    2.4257   -0.4197 C   0  0  0  0  0  0  0  0  0  0  0  0
   -1.2407    3.3040   -1.3124 C   0  0  0  0  0  0  0  0  0  0  0  0
   -1.0823    2.3356    0.8953 C   0  0  0  0  0  0  0  0  0  0  0  0
   -1.9498   -2.1628   -0.1502 C   0  0  0  0  0  0  0  0  0  0  0  0
   -2.3110    4.0925   -0.8898 C   0  0  0  0  0  0  0  0  0  0  0  0
   -2.1526    3.1240    1.3179 C   0  0  0  0  0  0  0  0  0  0  0  0
   -2.7669    4.0025    0.4254 C   0  0  0  0  0  0  0  0  0  0  0  0
   -2.8716   -2.7968   -0.9832 C   0  0  0  0  0  0  0  0  0  0  0  0
   -2.3948   -1.3992    0.9288 C   0  0  0  0  0  0  0  0  0  0  0  0
   -4.2386   -2.6672   -0.7372 C   0  0  0  0  0  0  0  0  0  0  0  0
   -3.7616   -1.2696    1.1751 C   0  0  0  0  0  0  0  0  0  0  0  0
   -4.6835   -1.9036    0.3419 C   0  0  0  0  0  0  0  0  0  0  0  0
    4.3749   -0.7075   -0.2339 H   0  0  0  0  0  0  0  0  0  0  0  0
    2.0855   -0.5667    1.7954 H   0  0  0  0  0  0  0  0  0  0  0  0
    2.5569    0.1020   -1.6530 H   0  0  0  0  0  0  0  0  0  0  0  0
    3.2224   -2.5860   -1.0927 H   0  0  0  0  0  0  0  0  0  0  0  0
    1.7244   -2.2339   -1.9784 H   0  0  0  0  0  0  0  0  0  0  0  0
    4.6270    0.1136    1.8586 H   0  0  0  0  0  0  0  0  0  0  0  0
    0.2721    0.9363   -1.6991 H   0  0  0  0  0  0  0  0  0  0  0  0
    3.9759   -2.5089    0.9226 H   0  0  0  0  0  0  0  0  0  0  0  0
    3.4845    2.1135   -2.1147 H   0  0  0  0  0  0  0  0  0  0  0  0
    1.3614    3.0890    0.8323 H   0  0  0  0  0  0  0  0  0  0  0  0
   -0.2845   -2.8723   -1.1765 H   0  0  0  0  0  0  0  0  0  0  0  0
   -0.8962    3.3854   -2.3404 H   0  0  0  0  0  0  0  0  0  0  0  0
   -0.6210    1.6521    1.6041 H   0  0  0  0  0  0  0  0  0  0  0  0
    2.0088   -4.4499   -1.6974 H   0  0  0  0  0  0  0  0  0  0  0  0
   -2.7895    4.7764   -1.5847 H   0  0  0  0  0  0  0  0  0  0  0  0
   -2.5090    3.0522    2.3413 H   0  0  0  0  0  0  0  0  0  0  0  0
   -2.5378   -3.3946   -1.8275 H   0  0  0  0  0  0  0  0  0  0  0  0
   -1.7062   -0.8929    1.5996 H   0  0  0  0  0  0  0  0  0  0  0  0
   -3.6007    4.6158    0.7543 H   0  0  0  0  0  0  0  0  0  0  0  0
   -4.9565   -3.1607   -1.3858 H   0  0  0  0  0  0  0  0  0  0  0  0
   -4.1083   -0.6747    2.0150 H   0  0  0  0  0  0  0  0  0  0  0  0
   -5.7478   -1.8024    0.5335 H   0  0  0  0  0  0  0  0  0  0  0  0
  1  8  1  0  0  0  0
  1 32  1  0  0  0  0
  2  9  1  0  0  0  0
  2 34  1  0  0  0  0
  3 10  1  0  0  0  0
  3 35  1  0  0  0  0
  4 12  1  0  0  0  0
  4 36  1  0  0  0  0
  5 13  1  0  0  0  0
  5 40  1  0  0  0  0
  6  7  1  0  0  0  0
  6 11  2  3  0  0  0
  7 18  1  0  0  0  0
  7 37  1  0  0  0  0
  8  9  1  0  0  0  0
  8 10  1  0  0  0  0
  8 27  1  0  0  0  0
  9 11  1  0  0  0  0
  9 28  1  0  0  0  0
 10 12  1  0  0  0  0
 10 29  1  0  0  0  0
 11 13  1  0  0  0  0
 12 14  2  3  0  0  0
 13 30  1  0  0  0  0
 13 31  1  0  0  0  0
 14 15  1  0  0  0  0
 14 33  1  0  0  0  0
 15 16  2  0  0  0  0
 15 17  1  0  0  0  0
 16 19  1  0  0  0  0
 16 38  1  0  0  0  0
 17 20  2  0  0  0  0
 17 39  1  0  0  0  0
 18 22  2  0  0  0  0
 18 23  1  0  0  0  0
 19 21  2  0  0  0  0
 19 41  1  0  0  0  0
 20 21  1  0  0  0  0
 20 42  1  0  0  0  0
 21 45  1  0  0  0  0
 22 24  1  0  0  0  0
 22 43  1  0  0  0  0
 23 25  2  0  0  0  0
 23 44  1  0  0  0  0
 24 26  2  0  0  0  0
 24 46  1  0  0  0  0
 25 26  1  0  0  0  0
 25 47  1  0  0  0  0
 26 48  1  0  0  0  0
M  END
> <PUBCHEM_COMPOUND_CID>
129730157

> <PUBCHEM_CONFORMER_RMSD>
0.8

> <PUBCHEM_CONFORMER_DIVERSEORDER>
1
172
32
57
26
3
76
185
154
41
169
98
164
36
77
190
205
118
177
70
152
181
147
199
72
158
161
6
182
88
166
50
196
16
187
179
74
39
15
188
87
195
211
151
138
61
207
171
192
214
49
110
111
40
38
127
27
173
156
103
132
21
191
206
150
129
134
107
213
217
55
202
176
174
146
121
109
184
198
210
124
31
64
8
7
115
46
170
209
197
117
123
140
183
52
153
96
135
100
143
114
189
62
53
208
142
11
139
75
149
144
180
81
126
203
128
157
145
148
73
120
35
13
178
29
91
48
45
216
160
23
175
89
200
133
212
130
59
12
84
86
94
137
105
19
90
167
22
159
108
85
113
99
168
17
102
155
54
79
204
119
58
66
80
82
60
51
218
2
34
141
125
28
193
63
162
186
163
95
215
219
30
10
68
9
131
25
101
93
136
43
4
97
56
42
71
69
20
165
92
116
24
44
65
194
37
67
83
112
201
106
78
122
47
18
104
33
5
14

> <PUBCHEM_MMFF94_PARTIAL_CHARGES>
43
1 -0.68
10 0.42
11 0.33
12 -0.06
13 0.34
14 -0.18
15 0.03
16 -0.15
17 -0.15
18 0.1
19 -0.15
2 -0.68
20 -0.15
21 -0.15
22 -0.15
23 -0.15
24 -0.15
25 -0.15
26 -0.15
3 -0.68
32 0.4
33 0.15
34 0.4
35 0.4
36 0.45
37 0.4
38 0.15
39 0.15
4 -0.53
40 0.4
41 0.15
42 0.15
43 0.15
44 0.15
45 0.15
46 0.15
47 0.15
48 0.15
5 -0.68
6 -0.49
7 -0.46
8 0.28
9 0.34

> <PUBCHEM_EFFECTIVE_ROTOR_COUNT>
8

> <PUBCHEM_PHARMACOPHORE_FEATURES>
13
1 1 acceptor
1 1 donor
1 2 acceptor
1 2 donor
1 3 acceptor
1 3 donor
1 4 donor
1 5 acceptor
1 5 donor
1 6 acceptor
1 7 donor
6 15 16 17 19 20 21 rings
6 18 22 23 24 25 26 rings

> <PUBCHEM_HEAVY_ATOM_COUNT>
26

> <PUBCHEM_ATOM_DEF_STEREO_COUNT>
3

> <PUBCHEM_ATOM_UDEF_STEREO_COUNT>
0

> <PUBCHEM_BOND_DEF_STEREO_COUNT>
0

> <PUBCHEM_BOND_UDEF_STEREO_COUNT>
2

> <PUBCHEM_ISOTOPIC_ATOM_COUNT>
0

> <PUBCHEM_COMPONENT_COUNT>
1

> <PUBCHEM_CACTVS_TAUTO_COUNT>
1001

> <PUBCHEM_CONFORMER_ID>
07BB866D00000001

> <PUBCHEM_MMFF94_ENERGY>
74.6406

> <PUBCHEM_FEATURE_SELFOVERLAP>
65.995

> <PUBCHEM_SHAPE_FINGERPRINT>
10064457 181 18052818044592032544
10316853 100 17760659066476593377
104564 63 18409455799211730420
10871710 139 18264511605085782621
1100329 8 17834678192856719135
11513181 2 18059018259659996887
12553582 1 18265060317333082177
12788726 201 18337681922107948788
13004483 165 18337385062669199209
13140716 1 17976535336896032498
13965767 371 17699044775470674699
14955137 171 17906198456611713003
15210252 30 17899135202467885237
18681886 176 17839176660152028550
19734167 9 17982706616199526728
20600515 1 17692250059751693836
21344244 78 18046313518169550402
22113638 7 17836081547698492519
23558518 356 18261672562957107434
238 59 17037527779264145437
345986 75 18043503166385053546
463206 1 18121784099895812843
5282274 181 18122637049877007073
5939293 188 17906452491031248518
6443956 14 18194683906929127245
653340 110 18341040874206630664

> <PUBCHEM_SHAPE_MULTIPOLES>
495.76
7.54
6.23
1.36
0.01
3.1
0.09
-3.62
0.92
-4.82
-1.21
0.23
0.18
-0.59

> <PUBCHEM_SHAPE_SELFOVERLAP>
1036.777

> <PUBCHEM_SHAPE_VOLUME>
278.2

> <PUBCHEM_COORDINATE_TYPE>
2
5
10