129775083
  -OEChem-05042113263D

 66 66  0     1  0  0  0  0  0999 V2000
   -5.0299    0.3695    0.3778 O   0  0  0  0  0  0  0  0  0  0  0  0
   -3.2438    0.9039   -1.0233 O   0  0  0  0  0  0  0  0  0  0  0  0
   -7.4455   -0.8914   -0.7889 O   0  0  0  0  0  0  0  0  0  0  0  0
   -4.6423   -3.1485   -0.2660 O   0  0  0  0  0  0  0  0  0  0  0  0
   -5.0707   -1.3922    1.9594 O   0  0  0  0  0  0  0  0  0  0  0  0
   -3.4309   -1.6646   -2.2321 O   0  0  0  0  0  0  0  0  0  0  0  0
   -6.2740    0.9806    2.7535 O   0  0  0  0  0  0  0  0  0  0  0  0
   -2.1140    1.2947    0.9486 O   0  0  0  0  0  0  0  0  0  0  0  0
   -6.4650   -1.5737   -0.0082 C   0  0  1  0  0  0  0  0  0  0  0  0
   -5.4131   -2.1640   -0.9551 C   0  0  1  0  0  0  0  0  0  0  0  0
   -5.8377   -0.6180    1.0327 C   0  0  2  0  0  0  0  0  0  0  0  0
   -4.5029   -1.0653   -1.5107 C   0  0  1  0  0  0  0  0  0  0  0  0
   -3.9599   -0.1641   -0.4014 C   0  0  2  0  0  0  0  0  0  0  0  0
   -6.9148    0.1373    1.8167 C   0  0  0  0  0  0  0  0  0  0  0  0
    3.0977    1.0383   -0.4844 C   0  0  0  0  0  0  0  0  0  0  0  0
    4.5154    1.3780   -0.0207 C   0  0  0  0  0  0  0  0  0  0  0  0
    2.1442    2.2154   -0.2656 C   0  0  0  0  0  0  0  0  0  0  0  0
    5.4764    0.2132   -0.2695 C   0  0  0  0  0  0  0  0  0  0  0  0
    0.7353    1.8863   -0.7599 C   0  0  0  0  0  0  0  0  0  0  0  0
    6.8865    0.5435    0.2248 C   0  0  0  0  0  0  0  0  0  0  0  0
   -0.2849    3.0113   -0.5456 C   0  0  0  0  0  0  0  0  0  0  0  0
   -1.7024    2.6739   -1.0100 C   0  0  0  0  0  0  0  0  0  0  0  0
    7.8845   -0.6013    0.0285 C   0  0  0  0  0  0  0  0  0  0  0  0
   -2.3453    1.5520   -0.2249 C   0  0  0  0  0  0  0  0  0  0  0  0
    9.3105   -0.2459    0.4549 C   0  0  0  0  0  0  0  0  0  0  0  0
   10.2771   -1.3979    0.1703 C   0  0  0  0  0  0  0  0  0  0  0  0
   11.6963   -1.0582    0.6248 C   0  0  0  0  0  0  0  0  0  0  0  0
   12.6529   -2.2130    0.3744 C   0  0  0  0  0  0  0  0  0  0  0  0
   -6.9739   -2.3874    0.5240 H   0  0  0  0  0  0  0  0  0  0  0  0
   -5.8923   -2.6785   -1.7968 H   0  0  0  0  0  0  0  0  0  0  0  0
   -5.0703   -0.4489   -2.2197 H   0  0  0  0  0  0  0  0  0  0  0  0
   -3.2717   -0.7373    0.2342 H   0  0  0  0  0  0  0  0  0  0  0  0
   -7.5611   -0.5550    2.3660 H   0  0  0  0  0  0  0  0  0  0  0  0
   -7.5218    0.7712    1.1628 H   0  0  0  0  0  0  0  0  0  0  0  0
   -7.8484   -1.5419   -1.3889 H   0  0  0  0  0  0  0  0  0  0  0  0
    2.7318    0.1606    0.0621 H   0  0  0  0  0  0  0  0  0  0  0  0
    3.1144    0.7733   -1.5486 H   0  0  0  0  0  0  0  0  0  0  0  0
   -5.2551   -3.8376    0.0422 H   0  0  0  0  0  0  0  0  0  0  0  0
    4.5014    1.6232    1.0482 H   0  0  0  0  0  0  0  0  0  0  0  0
    4.8740    2.2679   -0.5522 H   0  0  0  0  0  0  0  0  0  0  0  0
   -5.0140   -0.8961    2.7934 H   0  0  0  0  0  0  0  0  0  0  0  0
    2.5183    3.0998   -0.7951 H   0  0  0  0  0  0  0  0  0  0  0  0
    2.1091    2.4673    0.8011 H   0  0  0  0  0  0  0  0  0  0  0  0
    5.5076   -0.0191   -1.3407 H   0  0  0  0  0  0  0  0  0  0  0  0
    5.1104   -0.6829    0.2459 H   0  0  0  0  0  0  0  0  0  0  0  0
   -3.8202   -2.2173   -2.9310 H   0  0  0  0  0  0  0  0  0  0  0  0
    0.7760    1.6459   -1.8298 H   0  0  0  0  0  0  0  0  0  0  0  0
    0.3882    0.9797   -0.2498 H   0  0  0  0  0  0  0  0  0  0  0  0
    6.8484    0.8027    1.2901 H   0  0  0  0  0  0  0  0  0  0  0  0
    7.2522    1.4326   -0.3041 H   0  0  0  0  0  0  0  0  0  0  0  0
   -0.3048    3.2765    0.5188 H   0  0  0  0  0  0  0  0  0  0  0  0
    0.0553    3.9035   -1.0854 H   0  0  0  0  0  0  0  0  0  0  0  0
   -2.3458    3.5549   -0.9109 H   0  0  0  0  0  0  0  0  0  0  0  0
   -1.6687    2.3958   -2.0701 H   0  0  0  0  0  0  0  0  0  0  0  0
    7.5430   -1.4774    0.5936 H   0  0  0  0  0  0  0  0  0  0  0  0
    7.8880   -0.8897   -1.0302 H   0  0  0  0  0  0  0  0  0  0  0  0
    9.6419    0.6512   -0.0819 H   0  0  0  0  0  0  0  0  0  0  0  0
    9.3215   -0.0058    1.5248 H   0  0  0  0  0  0  0  0  0  0  0  0
   -6.9712    1.4470    3.2453 H   0  0  0  0  0  0  0  0  0  0  0  0
    9.9327   -2.3010    0.6887 H   0  0  0  0  0  0  0  0  0  0  0  0
   10.2781   -1.6222   -0.9034 H   0  0  0  0  0  0  0  0  0  0  0  0
   12.0552   -0.1700    0.0918 H   0  0  0  0  0  0  0  0  0  0  0  0
   11.6977   -0.8175    1.6943 H   0  0  0  0  0  0  0  0  0  0  0  0
   12.3398   -3.1078    0.9218 H   0  0  0  0  0  0  0  0  0  0  0  0
   12.6990   -2.4602   -0.6910 H   0  0  0  0  0  0  0  0  0  0  0  0
   13.6619   -1.9480    0.7056 H   0  0  0  0  0  0  0  0  0  0  0  0
  1 11  1  0  0  0  0
  1 13  1  0  0  0  0
  2 13  1  0  0  0  0
  2 24  1  0  0  0  0
  3  9  1  0  0  0  0
  3 35  1  0  0  0  0
  4 10  1  0  0  0  0
  4 38  1  0  0  0  0
  5 11  1  0  0  0  0
  5 41  1  0  0  0  0
  6 12  1  0  0  0  0
  6 46  1  0  0  0  0
  7 14  1  0  0  0  0
  7 59  1  0  0  0  0
  8 24  2  0  0  0  0
  9 10  1  0  0  0  0
  9 11  1  0  0  0  0
  9 29  1  0  0  0  0
 10 12  1  0  0  0  0
 10 30  1  0  0  0  0
 11 14  1  0  0  0  0
 12 13  1  0  0  0  0
 12 31  1  0  0  0  0
 13 32  1  0  0  0  0
 14 33  1  0  0  0  0
 14 34  1  0  0  0  0
 15 16  1  0  0  0  0
 15 17  1  0  0  0  0
 15 36  1  0  0  0  0
 15 37  1  0  0  0  0
 16 18  1  0  0  0  0
 16 39  1  0  0  0  0
 16 40  1  0  0  0  0
 17 19  1  0  0  0  0
 17 42  1  0  0  0  0
 17 43  1  0  0  0  0
 18 20  1  0  0  0  0
 18 44  1  0  0  0  0
 18 45  1  0  0  0  0
 19 21  1  0  0  0  0
 19 47  1  0  0  0  0
 19 48  1  0  0  0  0
 20 23  1  0  0  0  0
 20 49  1  0  0  0  0
 20 50  1  0  0  0  0
 21 22  1  0  0  0  0
 21 51  1  0  0  0  0
 21 52  1  0  0  0  0
 22 24  1  0  0  0  0
 22 53  1  0  0  0  0
 22 54  1  0  0  0  0
 23 25  1  0  0  0  0
 23 55  1  0  0  0  0
 23 56  1  0  0  0  0
 25 26  1  0  0  0  0
 25 57  1  0  0  0  0
 25 58  1  0  0  0  0
 26 27  1  0  0  0  0
 26 60  1  0  0  0  0
 26 61  1  0  0  0  0
 27 28  1  0  0  0  0
 27 62  1  0  0  0  0
 27 63  1  0  0  0  0
 28 64  1  0  0  0  0
 28 65  1  0  0  0  0
 28 66  1  0  0  0  0
M  END
> <PUBCHEM_COMPOUND_CID>
129775083

> <PUBCHEM_CONFORMER_RMSD>
1.4

> <PUBCHEM_CONFORMER_DIVERSEORDER>
1
7
180
26
75
98
12
199
68
111
79
130
169
166
102
65
214
32
86
103
126
55
13
174
38
193
107
40
154
18
143
140
119
46
146
19
186
147
81
63
29
24
135
156
206
91
210
197
39
106
100
30
179
34
160
192
148
201
149
25
42
151
191
33
95
69
131
176
226
112
5
138
139
78
213
101
150
83
87
127
93
59
167
222
217
104
145
110
202
108
47
76
132
162
183
208
173
99
129
14
3
212
89
182
133
157
82
196
48
198
203
158
56
17
31
9
185
155
142
62
113
22
16
122
168
71
177
109
194
134
207
172
58
125
73
164
11
195
121
124
88
57
123
96
53
171
4
181
35
153
54
28
64
6
159
94
20
67
189
165
128
115
80
161
85
175
70
15
2
209
190
184
105
141
90
66
187
170
45
77
117
74
61
51
144
152
118
205
44
27
204
200
229
10
21
163
97
137
223
188
230
227
215
60
23
37
218
43
211
216
120
84
8
72
221
49
36
41
52
220
225
224
136
92
228
50
114
116
219
178

> <PUBCHEM_MMFF94_PARTIAL_CHARGES>
21
1 -0.56
10 0.28
11 0.56
12 0.28
13 0.56
14 0.28
2 -0.43
22 0.06
24 0.66
3 -0.68
35 0.4
38 0.4
4 -0.68
41 0.4
46 0.4
5 -0.68
59 0.4
6 -0.68
7 -0.68
8 -0.57
9 0.28

> <PUBCHEM_EFFECTIVE_ROTOR_COUNT>
16.2

> <PUBCHEM_PHARMACOPHORE_FEATURES>
14
1 1 acceptor
1 28 hydrophobe
1 3 acceptor
1 3 donor
1 4 acceptor
1 4 donor
1 5 acceptor
1 5 donor
1 6 acceptor
1 6 donor
1 7 acceptor
1 7 donor
1 8 acceptor
6 1 9 10 11 12 13 rings

> <PUBCHEM_HEAVY_ATOM_COUNT>
28

> <PUBCHEM_ATOM_DEF_STEREO_COUNT>
4

> <PUBCHEM_ATOM_UDEF_STEREO_COUNT>
1

> <PUBCHEM_BOND_DEF_STEREO_COUNT>
0

> <PUBCHEM_BOND_UDEF_STEREO_COUNT>
0

> <PUBCHEM_ISOTOPIC_ATOM_COUNT>
0

> <PUBCHEM_COMPONENT_COUNT>
1

> <PUBCHEM_CACTVS_TAUTO_COUNT>
1

> <PUBCHEM_CONFORMER_ID>
07BC35EB00000001

> <PUBCHEM_MMFF94_ENERGY>
35.6382

> <PUBCHEM_FEATURE_SELFOVERLAP>
71.119

> <PUBCHEM_SHAPE_FINGERPRINT>
10 15 13686303478309995828
10930396 42 15626222416561372505
11211813 128 18411136906390814782
11578821 258 10014707620822157490
14671636 106 18409163313099383372
15461852 350 13334741245256700552
17780758 139 17917997200478933825
1818759 1 18260269634387844882
2026 5 18188489065878224362
21362267 313 10159693588168570326
21867018 265 14418140633981562056
22288116 15 12757154606005683137
23522609 53 18051446081883445429
4339292 15 18040994026208006576
44802255 64 12829211066014210720
54039377 194 18260548918662514780
543368 44 9006794077187178661
5470011 282 16877946062073868348
57676310 51 18260261920031905642
57828716 57 17242186858276192419
59521506 201 14977733624159154913
636775 72 9583519832893543598
636775 8 17313110748139476008
6673363 416 10881405335567578991
9953998 17 17561363976421381384
9980921 7 11959727153567396697
999808 66 18114184154748329180

> <PUBCHEM_SHAPE_MULTIPOLES>
529.27
39.31
2.96
1.54
136.51
0.46
0.57
-34.09
10.83
-1.27
-0.78
-4.55
-0.28
-1.73

> <PUBCHEM_SHAPE_SELFOVERLAP>
1025.892

> <PUBCHEM_SHAPE_VOLUME>
316.9

> <PUBCHEM_COORDINATE_TYPE>
2
5
10