129700041
  -OEChem-05042113263D

 24 23  0     1  0  0  0  0  0999 V2000
    4.2934   -1.1970   -0.3584 S   0  0  0  0  0  0  0  0  0  0  0  0
   -0.0336    0.6917    1.7297 O   0  0  0  0  0  0  0  0  0  0  0  0
    2.2375    1.3286    0.1483 O   0  0  0  0  0  0  0  0  0  0  0  0
   -0.1359    1.5418   -0.9512 O   0  0  0  0  0  0  0  0  0  0  0  0
   -2.6383    1.0598   -0.4088 O   0  0  0  0  0  0  0  0  0  0  0  0
   -3.8373   -1.2407    0.1901 O   0  0  0  0  0  0  0  0  0  0  0  0
    0.4077   -0.1675    0.6766 C   0  0  2  0  0  0  0  0  0  0  0  0
    1.9364   -0.0221    0.5034 C   0  0  1  0  0  0  0  0  0  0  0  0
   -0.3904    0.1915   -0.5869 C   0  0  1  0  0  0  0  0  0  0  0  0
    2.4990   -0.9633   -0.5674 C   0  0  0  0  0  0  0  0  0  0  0  0
   -1.8973    0.0771   -0.3519 C   0  0  0  0  0  0  0  0  0  0  0  0
   -2.4414   -1.2999   -0.0234 C   0  0  0  0  0  0  0  0  0  0  0  0
    0.1866   -1.1955    0.9831 H   0  0  0  0  0  0  0  0  0  0  0  0
    2.4017   -0.2074    1.4797 H   0  0  0  0  0  0  0  0  0  0  0  0
   -0.1219   -0.4526   -1.4303 H   0  0  0  0  0  0  0  0  0  0  0  0
    2.3316   -0.5667   -1.5736 H   0  0  0  0  0  0  0  0  0  0  0  0
    2.0373   -1.9528   -0.4956 H   0  0  0  0  0  0  0  0  0  0  0  0
    0.4482    0.4385    2.5355 H   0  0  0  0  0  0  0  0  0  0  0  0
   -1.9767   -1.6765    0.8898 H   0  0  0  0  0  0  0  0  0  0  0  0
   -2.2364   -1.9714   -0.8616 H   0  0  0  0  0  0  0  0  0  0  0  0
    3.2029    1.3941    0.0500 H   0  0  0  0  0  0  0  0  0  0  0  0
   -0.5643    1.6992   -1.8100 H   0  0  0  0  0  0  0  0  0  0  0  0
    4.4584   -2.0346   -1.3926 H   1  0  0  0  0  0  0  0  0  0  0  0
   -4.1403   -2.1482    0.3633 H   0  0  0  0  0  0  0  0  0  0  0  0
  1 10  1  0  0  0  0
  1 23  1  0  0  0  0
  2  7  1  0  0  0  0
  2 18  1  0  0  0  0
  3  8  1  0  0  0  0
  3 21  1  0  0  0  0
  4  9  1  0  0  0  0
  4 22  1  0  0  0  0
  5 11  2  0  0  0  0
  6 12  1  0  0  0  0
  6 24  1  0  0  0  0
  7  8  1  0  0  0  0
  7  9  1  0  0  0  0
  7 13  1  0  0  0  0
  8 10  1  0  0  0  0
  8 14  1  0  0  0  0
  9 11  1  0  0  0  0
  9 15  1  0  0  0  0
 10 16  1  0  0  0  0
 10 17  1  0  0  0  0
 11 12  1  0  0  0  0
 12 19  1  0  0  0  0
 12 20  1  0  0  0  0
M  ISO  1  23   2
M  END
> <PUBCHEM_COMPOUND_CID>
129700041

> <PUBCHEM_CONFORMER_RMSD>
0.8

> <PUBCHEM_CONFORMER_DIVERSEORDER>
1
54
3
15
13
64
46
20
80
105
9
61
93
99
18
65
62
31
38
8
59
50
36
12
47
43
51
24
75
88
102
94
53
52
55
17
49
84
6
95
70
33
66
60
74
26
4
22
5
34
39
69
58
21
14
10
76
44
90
11
97
96
89
91
81
72
40
71
35
28
2
86
42
92
79
104
77
37
29
103
68
25
100
19
85
78
56
82
41
30
101
23
7
45
48
27
16
73
63
87
67
57
107
32
83
106
98

> <PUBCHEM_MMFF94_PARTIAL_CHARGES>
17
1 -0.41
10 0.23
11 0.45
12 0.34
18 0.4
2 -0.68
21 0.4
22 0.4
23 0.18
24 0.4
3 -0.68
4 -0.68
5 -0.57
6 -0.68
7 0.28
8 0.28
9 0.34

> <PUBCHEM_EFFECTIVE_ROTOR_COUNT>
5

> <PUBCHEM_PHARMACOPHORE_FEATURES>
9
1 2 acceptor
1 2 donor
1 3 acceptor
1 3 donor
1 4 acceptor
1 4 donor
1 5 acceptor
1 6 acceptor
1 6 donor

> <PUBCHEM_HEAVY_ATOM_COUNT>
12

> <PUBCHEM_ATOM_DEF_STEREO_COUNT>
3

> <PUBCHEM_ATOM_UDEF_STEREO_COUNT>
0

> <PUBCHEM_BOND_DEF_STEREO_COUNT>
0

> <PUBCHEM_BOND_UDEF_STEREO_COUNT>
0

> <PUBCHEM_ISOTOPIC_ATOM_COUNT>
1

> <PUBCHEM_COMPONENT_COUNT>
1

> <PUBCHEM_CACTVS_TAUTO_COUNT>
11

> <PUBCHEM_CONFORMER_ID>
07BB10C900000001

> <PUBCHEM_MMFF94_ENERGY>
17.5626

> <PUBCHEM_FEATURE_SELFOVERLAP>
45.726

> <PUBCHEM_SHAPE_FINGERPRINT>
10130415 120 17418375787521247194
11769659 78 18343017813234991086
12032990 46 18335422382599477359
124424 183 17418092088231388609
12897270 3 18187076230951436430
12932764 1 17530954748740036253
14128692 85 18335425702693365999
14993402 34 14634873050297395974
16945 1 18190729839260386889
18186145 218 16153710937726823222
20201158 50 18201999872326897070
20281407 28 18339080393761505302
20711983 138 17845365557743212282
20871999 31 17967529052179188319
21061003 4 17346309380484721426
21293036 1 15502380036367934094
23402539 116 17240481365179420846
29004967 10 17704064114380272378
305870 269 11383841441291609876
3248919 1 18270101483483237137
449060 23 18187642565587286135
528716 315 17603307050728404755
8030462 33 16660636341232806313

> <PUBCHEM_SHAPE_MULTIPOLES>
221.46
6.21
1.46
1.01
2.06
0.03
0.25
-3.28
-0.68
-0.2
-0.12
0.04
0.24
0.45

> <PUBCHEM_SHAPE_SELFOVERLAP>
411.667

> <PUBCHEM_SHAPE_VOLUME>
140.1

> <PUBCHEM_COORDINATE_TYPE>
2
5
10