129716961
  -OEChem-05042113263D

 40 39  0     1  0  0  0  0  0999 V2000
    3.0724   -1.4319   -1.5368 O   0  0  0  0  0  0  0  0  0  0  0  0
    2.6827   -1.8247    1.1309 O   0  0  0  0  0  0  0  0  0  0  0  0
    4.7646   -0.1317    0.3210 O   0  0  0  0  0  0  0  0  0  0  0  0
    0.2337   -2.5427    0.4348 O   0  0  0  0  0  0  0  0  0  0  0  0
    4.5635    2.8638    0.0136 O   0  0  0  0  0  0  0  0  0  0  0  0
   -3.0670    2.5303   -0.2578 O   0  0  0  0  0  0  0  0  0  0  0  0
   -2.5455    1.3988    1.6334 O   0  0  0  0  0  0  0  0  0  0  0  0
   -1.8276   -0.7625    0.0631 N   0  0  0  0  0  0  0  0  0  0  0  0
   -2.8248    0.1620   -0.4597 C   0  0  1  0  0  0  0  0  0  0  0  0
   -4.2044   -0.5288   -0.5872 C   0  0  0  0  0  0  0  0  0  0  0  0
    2.6196   -0.3081   -0.7701 C   0  0  1  0  0  0  0  0  0  0  0  0
    1.9133   -0.8154    0.4946 C   0  0  1  0  0  0  0  0  0  0  0  0
    3.8385    0.5936   -0.4968 C   0  0  1  0  0  0  0  0  0  0  0  0
   -0.4893   -0.3838   -0.3678 C   0  0  0  0  0  0  0  0  0  0  0  0
    0.5156   -1.3655    0.2072 C   0  0  0  0  0  0  0  0  0  0  0  0
   -4.6761   -1.0966    0.7556 C   0  0  0  0  0  0  0  0  0  0  0  0
   -5.3048    0.3355   -1.2131 C   0  0  0  0  0  0  0  0  0  0  0  0
    3.5202    1.9154    0.2011 C   0  0  0  0  0  0  0  0  0  0  0  0
   -2.7846    1.3925    0.4341 C   0  0  0  0  0  0  0  0  0  0  0  0
   -2.5334    0.4746   -1.4723 H   0  0  0  0  0  0  0  0  0  0  0  0
   -4.0748   -1.3860   -1.2639 H   0  0  0  0  0  0  0  0  0  0  0  0
    1.9280    0.2545   -1.4065 H   0  0  0  0  0  0  0  0  0  0  0  0
    1.7761   -0.0067    1.2199 H   0  0  0  0  0  0  0  0  0  0  0  0
    4.3616    0.7939   -1.4398 H   0  0  0  0  0  0  0  0  0  0  0  0
   -0.3935   -0.4091   -1.4588 H   0  0  0  0  0  0  0  0  0  0  0  0
   -0.2343    0.6172   -0.0043 H   0  0  0  0  0  0  0  0  0  0  0  0
   -2.0197   -1.7032   -0.2824 H   1  0  0  0  0  0  0  0  0  0  0  0
   -4.8329   -0.3032    1.4936 H   0  0  0  0  0  0  0  0  0  0  0  0
   -5.6291   -1.6235    0.6327 H   0  0  0  0  0  0  0  0  0  0  0  0
   -3.9655   -1.8171    1.1720 H   0  0  0  0  0  0  0  0  0  0  0  0
   -5.5608    1.1825   -0.5685 H   0  0  0  0  0  0  0  0  0  0  0  0
   -6.2151   -0.2514   -1.3751 H   0  0  0  0  0  0  0  0  0  0  0  0
   -4.9813    0.7287   -2.1822 H   0  0  0  0  0  0  0  0  0  0  0  0
    3.3920    1.7729    1.2790 H   0  0  0  0  0  0  0  0  0  0  0  0
    2.6074    2.3540   -0.2148 H   0  0  0  0  0  0  0  0  0  0  0  0
    2.2897   -1.9570   -1.7759 H   0  0  0  0  0  0  0  0  0  0  0  0
    2.8632   -2.5187    0.4739 H   0  0  0  0  0  0  0  0  0  0  0  0
    4.9655   -0.9657   -0.1372 H   0  0  0  0  0  0  0  0  0  0  0  0
    4.2962    3.6776    0.4740 H   0  0  0  0  0  0  0  0  0  0  0  0
   -3.0485    3.3225    0.3204 H   0  0  0  0  0  0  0  0  0  0  0  0
  1 11  1  0  0  0  0
  1 36  1  0  0  0  0
  2 12  1  0  0  0  0
  2 37  1  0  0  0  0
  3 13  1  0  0  0  0
  3 38  1  0  0  0  0
  4 15  2  0  0  0  0
  5 18  1  0  0  0  0
  5 39  1  0  0  0  0
  6 19  1  0  0  0  0
  6 40  1  0  0  0  0
  7 19  2  0  0  0  0
  8  9  1  0  0  0  0
  8 14  1  0  0  0  0
  8 27  1  0  0  0  0
  9 10  1  0  0  0  0
  9 19  1  0  0  0  0
  9 20  1  0  0  0  0
 10 16  1  0  0  0  0
 10 17  1  0  0  0  0
 10 21  1  0  0  0  0
 11 12  1  0  0  0  0
 11 13  1  0  0  0  0
 11 22  1  0  0  0  0
 12 15  1  0  0  0  0
 12 23  1  0  0  0  0
 13 18  1  0  0  0  0
 13 24  1  0  0  0  0
 14 15  1  0  0  0  0
 14 25  1  0  0  0  0
 14 26  1  0  0  0  0
 16 28  1  0  0  0  0
 16 29  1  0  0  0  0
 16 30  1  0  0  0  0
 17 31  1  0  0  0  0
 17 32  1  0  0  0  0
 17 33  1  0  0  0  0
 18 34  1  0  0  0  0
 18 35  1  0  0  0  0
M  ISO  1  27   2
M  END
> <PUBCHEM_COMPOUND_CID>
129716961

> <PUBCHEM_CONFORMER_RMSD>
0.8

> <PUBCHEM_CONFORMER_DIVERSEORDER>
1
20
47
57
64
34
113
85
40
98
99
118
48
120
86
68
28
67
108
114
25
91
8
30
88
43
55
2
77
83
119
26
14
74
63
105
50
52
75
93
46
59
19
94
35
72
80
107
92
56
7
111
102
22
53
36
100
115
32
117
38
112
96
18
15
11
60
84
81
4
44
103
49
45
106
3
24
90
87
69
41
65
5
101
79
42
21
17
104
97
116
62
71
39
89
110
76
95
10
70
51
12
31
6
58
29
109
54
73
9
23
16
27
66
37
82
61
13
78
33

> <PUBCHEM_MMFF94_PARTIAL_CHARGES>
22
1 -0.68
11 0.28
12 0.34
13 0.28
14 0.33
15 0.45
18 0.28
19 0.66
2 -0.68
27 0.36
3 -0.68
36 0.4
37 0.4
38 0.4
39 0.4
4 -0.57
40 0.5
5 -0.68
6 -0.65
7 -0.57
8 -0.9
9 0.33

> <PUBCHEM_EFFECTIVE_ROTOR_COUNT>
9

> <PUBCHEM_PHARMACOPHORE_FEATURES>
15
1 1 acceptor
1 1 donor
1 2 acceptor
1 2 donor
1 3 acceptor
1 3 donor
1 4 acceptor
1 5 acceptor
1 5 donor
1 6 acceptor
1 7 acceptor
1 8 cation
1 8 donor
3 10 16 17 hydrophobe
3 6 7 19 anion

> <PUBCHEM_HEAVY_ATOM_COUNT>
19

> <PUBCHEM_ATOM_DEF_STEREO_COUNT>
4

> <PUBCHEM_ATOM_UDEF_STEREO_COUNT>
0

> <PUBCHEM_BOND_DEF_STEREO_COUNT>
0

> <PUBCHEM_BOND_UDEF_STEREO_COUNT>
0

> <PUBCHEM_ISOTOPIC_ATOM_COUNT>
1

> <PUBCHEM_COMPONENT_COUNT>
1

> <PUBCHEM_CACTVS_TAUTO_COUNT>
11

> <PUBCHEM_CONFORMER_ID>
07BB52E100000001

> <PUBCHEM_MMFF94_ENERGY>
29.9834

> <PUBCHEM_FEATURE_SELFOVERLAP>
76.222

> <PUBCHEM_SHAPE_FINGERPRINT>
10366900 7 17458631086142314592
10498660 4 18337952290330958525
10670039 82 18188506730551452620
12507557 5 17894630365936808365
12596602 18 17095796750155208936
12616999 72 16988566814210317334
12670546 177 17917709136404803719
128620 24 18342741818926388655
13533116 47 17822284631360104875
14787075 74 18269271442736306523
17349148 13 12685089289679366411
1813 80 13039191424256558994
18186145 218 18270410386347907942
19141452 34 8286203838186628537
20279233 1 14779555551965862851
21524375 3 18407760339576503258
21652331 79 18411981398858846461
21864079 5 18339648823760978097
22959321 54 18409447011550341809
23557571 272 16917347013266652251
23559900 14 18118953703447094843
351380 180 18410852174784233028
474 4 18189054351481412828
5104073 3 18040433261844066699
5281201 14 17917721158239720438
58051976 378 18343581837004355959
6333272 397 18335421317679417242
633830 44 18271531901124900551

> <PUBCHEM_SHAPE_MULTIPOLES>
344.94
11.21
2.43
1.1
1.67
0.96
0.01
3.62
1.41
-1.56
-0.42
0.37
-0.1
0.09

> <PUBCHEM_SHAPE_SELFOVERLAP>
665.846

> <PUBCHEM_SHAPE_VOLUME>
209.2

> <PUBCHEM_COORDINATE_TYPE>
2
5
10