129889814
  -OEChem-05042113263D

 46 47  0     1  0  0  0  0  0999 V2000
    1.5485   -0.9160    0.1649 O   0  0  0  0  0  0  0  0  0  0  0  0
   -2.7385    1.2593    0.6314 O   0  0  0  0  0  0  0  0  0  0  0  0
   -0.4267    0.0878    1.8418 O   0  0  0  0  0  0  0  0  0  0  0  0
    0.6869    0.3989   -1.6084 O   0  0  0  0  0  0  0  0  0  0  0  0
   -0.6290   -2.3047    0.4084 O   0  0  0  0  0  0  0  0  0  0  0  0
    0.9040    2.7061   -0.0344 O   0  0  0  0  0  0  0  0  0  0  0  0
   -3.4118   -2.2807   -0.1312 O   0  0  0  0  0  0  0  0  0  0  0  0
    3.7020    2.5861    0.5661 O   0  0  0  0  0  0  0  0  0  0  0  0
    4.9742    0.2546   -0.5097 O   0  0  0  0  0  0  0  0  0  0  0  0
   -4.7141    0.0710    0.9246 O   0  0  0  0  0  0  0  0  0  0  0  0
    2.6510   -3.3344   -0.4478 O   0  0  0  0  0  0  0  0  0  0  0  0
   -4.5755    1.5319   -1.4457 O   0  0  0  0  0  0  0  0  0  0  0  0
   -0.5749    0.1335    0.4174 C   0  0  1  0  0  0  0  0  0  0  0  0
    0.8226    0.2685   -0.1902 C   0  0  1  0  0  0  0  0  0  0  0  0
   -1.3015   -1.1347   -0.0587 C   0  0  2  0  0  0  0  0  0  0  0  0
    1.5562    1.5022    0.3629 C   0  0  1  0  0  0  0  0  0  0  0  0
   -1.4181    1.3704    0.0963 C   0  0  0  0  0  0  0  0  0  0  0  0
   -2.7395   -1.1699    0.4634 C   0  0  1  0  0  0  0  0  0  0  0  0
    3.0023    1.5547   -0.1330 C   0  0  2  0  0  0  0  0  0  0  0  0
    3.7062    0.2251    0.1416 C   0  0  1  0  0  0  0  0  0  0  0  0
    2.8765   -0.9574   -0.3655 C   0  0  1  0  0  0  0  0  0  0  0  0
   -3.4963    0.1379    0.1666 C   0  0  2  0  0  0  0  0  0  0  0  0
    3.4784   -2.2981    0.0476 C   0  0  0  0  0  0  0  0  0  0  0  0
   -3.8826    0.3078   -1.3083 C   0  0  0  0  0  0  0  0  0  0  0  0
   -1.3303   -1.2060   -1.1503 H   0  0  0  0  0  0  0  0  0  0  0  0
    1.5682    1.4855    1.4599 H   0  0  0  0  0  0  0  0  0  0  0  0
   -1.0610    2.2518    0.6268 H   0  0  0  0  0  0  0  0  0  0  0  0
   -1.4727    1.6008   -0.9717 H   0  0  0  0  0  0  0  0  0  0  0  0
   -2.7317   -1.3666    1.5431 H   0  0  0  0  0  0  0  0  0  0  0  0
    3.0472    1.8206   -1.1955 H   0  0  0  0  0  0  0  0  0  0  0  0
    3.8949    0.1244    1.2174 H   0  0  0  0  0  0  0  0  0  0  0  0
    2.8149   -0.9475   -1.4618 H   0  0  0  0  0  0  0  0  0  0  0  0
   -1.3036    0.1947    2.2469 H   0  0  0  0  0  0  0  0  0  0  0  0
    0.2259   -0.3797   -1.9552 H   0  0  0  0  0  0  0  0  0  0  0  0
    3.5116   -2.3904    1.1383 H   0  0  0  0  0  0  0  0  0  0  0  0
    4.4869   -2.4253   -0.3574 H   0  0  0  0  0  0  0  0  0  0  0  0
   -3.0130    0.3309   -1.9701 H   0  0  0  0  0  0  0  0  0  0  0  0
   -4.5566   -0.4907   -1.6352 H   0  0  0  0  0  0  0  0  0  0  0  0
   -1.1373   -3.0754    0.1027 H   0  0  0  0  0  0  0  0  0  0  0  0
    1.4142    3.4491    0.3308 H   0  0  0  0  0  0  0  0  0  0  0  0
   -4.3224   -2.2848    0.2104 H   0  0  0  0  0  0  0  0  0  0  0  0
    3.6670    2.3855    1.5169 H   0  0  0  0  0  0  0  0  0  0  0  0
    4.8184    0.3115   -1.4679 H   0  0  0  0  0  0  0  0  0  0  0  0
   -5.3530    0.6820    0.5202 H   0  0  0  0  0  0  0  0  0  0  0  0
    3.0493   -4.1771   -0.1707 H   0  0  0  0  0  0  0  0  0  0  0  0
   -4.8195    1.6216   -2.3826 H   0  0  0  0  0  0  0  0  0  0  0  0
  1 14  1  0  0  0  0
  1 21  1  0  0  0  0
  2 17  1  0  0  0  0
  2 22  1  0  0  0  0
  3 13  1  0  0  0  0
  3 33  1  0  0  0  0
  4 14  1  0  0  0  0
  4 34  1  0  0  0  0
  5 15  1  0  0  0  0
  5 39  1  0  0  0  0
  6 16  1  0  0  0  0
  6 40  1  0  0  0  0
  7 18  1  0  0  0  0
  7 41  1  0  0  0  0
  8 19  1  0  0  0  0
  8 42  1  0  0  0  0
  9 20  1  0  0  0  0
  9 43  1  0  0  0  0
 10 22  1  0  0  0  0
 10 44  1  0  0  0  0
 11 23  1  0  0  0  0
 11 45  1  0  0  0  0
 12 24  1  0  0  0  0
 12 46  1  0  0  0  0
 13 14  1  0  0  0  0
 13 15  1  0  0  0  0
 13 17  1  0  0  0  0
 14 16  1  0  0  0  0
 15 18  1  0  0  0  0
 15 25  1  0  0  0  0
 16 19  1  0  0  0  0
 16 26  1  0  0  0  0
 17 27  1  0  0  0  0
 17 28  1  0  0  0  0
 18 22  1  0  0  0  0
 18 29  1  0  0  0  0
 19 20  1  0  0  0  0
 19 30  1  0  0  0  0
 20 21  1  0  0  0  0
 20 31  1  0  0  0  0
 21 23  1  0  0  0  0
 21 32  1  0  0  0  0
 22 24  1  0  0  0  0
 23 35  1  0  0  0  0
 23 36  1  0  0  0  0
 24 37  1  0  0  0  0
 24 38  1  0  0  0  0
M  END
> <PUBCHEM_COMPOUND_CID>
129889814

> <PUBCHEM_CONFORMER_RMSD>
0.8

> <PUBCHEM_CONFORMER_DIVERSEORDER>
1
33
37
22
23
38
39
43
8
41
20
5
32
36
7
2
35
4
27
24
29
15
25
30
42
18
17
34
31
40
14
13
45
26
10
19
6
11
21
28
44
16
3
12
9

> <PUBCHEM_MMFF94_PARTIAL_CHARGES>
34
1 -0.56
10 -0.68
11 -0.68
12 -0.68
13 0.28
14 0.56
15 0.28
16 0.28
17 0.28
18 0.28
19 0.28
2 -0.56
20 0.28
21 0.28
22 0.56
23 0.28
24 0.28
3 -0.68
33 0.4
34 0.4
39 0.4
4 -0.68
40 0.4
41 0.4
42 0.4
43 0.4
44 0.4
45 0.4
46 0.4
5 -0.68
6 -0.68
7 -0.68
8 -0.68
9 -0.68

> <PUBCHEM_EFFECTIVE_ROTOR_COUNT>
5.4

> <PUBCHEM_PHARMACOPHORE_FEATURES>
24
1 1 acceptor
1 10 acceptor
1 10 donor
1 11 acceptor
1 11 donor
1 12 acceptor
1 12 donor
1 2 acceptor
1 3 acceptor
1 3 donor
1 4 acceptor
1 4 donor
1 5 acceptor
1 5 donor
1 6 acceptor
1 6 donor
1 7 acceptor
1 7 donor
1 8 acceptor
1 8 donor
1 9 acceptor
1 9 donor
6 1 14 16 19 20 21 rings
6 2 13 15 17 18 22 rings

> <PUBCHEM_HEAVY_ATOM_COUNT>
24

> <PUBCHEM_ATOM_DEF_STEREO_COUNT>
8

> <PUBCHEM_ATOM_UDEF_STEREO_COUNT>
1

> <PUBCHEM_BOND_DEF_STEREO_COUNT>
0

> <PUBCHEM_BOND_UDEF_STEREO_COUNT>
0

> <PUBCHEM_ISOTOPIC_ATOM_COUNT>
0

> <PUBCHEM_COMPONENT_COUNT>
1

> <PUBCHEM_CACTVS_TAUTO_COUNT>
1

> <PUBCHEM_CONFORMER_ID>
07BDF61600000001

> <PUBCHEM_MMFF94_ENERGY>
86.5313

> <PUBCHEM_FEATURE_SELFOVERLAP>
121.983

> <PUBCHEM_SHAPE_FINGERPRINT>
10062212 137 17704069560704732615
10616163 171 18341336698737824038
10646746 165 17894621535426408893
10863032 1 18413107277132265739
10922523 26 18186523219715868447
10967382 1 18411141333494352978
1100329 8 16750146195686364153
11370993 70 18338792433299742770
11578080 2 17387119880932875772
116883 192 18195525887890771508
12011746 2 18412268311796644358
12236239 1 17561368374182965032
12403259 415 18333450954362304045
12500047 106 18334573576818456367
12553582 1 18196104239644915050
13134695 92 18130777945538314545
13140716 1 18410301293752490155
13583140 156 18342170124314116405
13675066 3 18040440996885013321
14251757 17 18188761730653015117
14866123 147 16972242064272353602
15196674 1 18339927137725914424
15442244 35 18269278958744211568
15536298 74 18341615936125575186
16945 1 18339928241421655296
17349148 13 17632861888759501671
17492 89 18412546530698592783
18186145 218 18412267246185805645
200 152 17561084713062554464
20645477 56 18187081754796369869
20645477 70 18411983529120544246
21033648 29 18187637016526807169
21267235 1 18340782501979999242
21285901 2 18042117670307466828
221490 88 18337680796873983578
22393880 68 18341618165445853694
23402539 116 18131633365848299521
23557571 272 17749111097507621453
23559900 14 18413385419773615034
2748010 2 18335991942602434827
296302 2 18334575797443135828
335352 9 18411422795343445420
34934 24 18411131442269150670
3545911 37 18409452504929577353
495365 180 18200860872959374400
5104073 3 18339644554610556632
69090 78 18410292536229439435
7364860 26 18413110558978013834
8272917 22 18342465833039337958
9709674 26 18337961185160892090

> <PUBCHEM_SHAPE_MULTIPOLES>
423.48
8.59
2.74
1.04
1.86
0.94
-0.08
-0.38
-1.19
-2.01
-0.03
0.72
-0.18
0.7

> <PUBCHEM_SHAPE_SELFOVERLAP>
887.433

> <PUBCHEM_SHAPE_VOLUME>
234.4

> <PUBCHEM_COORDINATE_TYPE>
2
5
10