129827276
  -OEChem-05042113263D

 46 45  0     1  0  0  0  0  0999 V2000
   -0.4396   -0.6573    0.3598 O   0  0  0  0  0  0  0  0  0  0  0  0
   -2.9492   -1.5284   -1.7756 O   0  0  0  0  0  0  0  0  0  0  0  0
   -4.6967    0.7918   -2.0862 O   0  0  0  0  0  0  0  0  0  0  0  0
   -3.6492   -2.1324    0.9247 O   0  0  0  0  0  0  0  0  0  0  0  0
   -6.4908    1.1925   -0.0229 O   0  0  0  0  0  0  0  0  0  0  0  0
    3.5255   -1.1939   -0.9210 O   0  0  0  0  0  0  0  0  0  0  0  0
    1.5613    1.1124    1.1545 O   0  0  0  0  0  0  0  0  0  0  0  0
    3.9226    1.6100   -1.4228 O   0  0  0  0  0  0  0  0  0  0  0  0
   -4.9321    2.6862    1.7518 O   0  0  0  0  0  0  0  0  0  0  0  0
   -1.0699   -2.8388    0.7640 O   0  0  0  0  0  0  0  0  0  0  0  0
    6.4349    0.8537   -1.2009 O   0  0  0  0  0  0  0  0  0  0  0  0
    7.7118   -0.1861    0.8944 O   0  0  0  0  0  0  0  0  0  0  0  0
   -3.1357   -0.5066   -0.7826 C   0  0  1  0  0  0  0  0  0  0  0  0
   -4.5936   -0.0109   -0.9025 C   0  0  1  0  0  0  0  0  0  0  0  0
   -2.7485   -1.0886    0.5833 C   0  0  2  0  0  0  0  0  0  0  0  0
   -5.1504    0.8064    0.2752 C   0  0  1  0  0  0  0  0  0  0  0  0
    1.8041    0.1784    0.1031 C   0  0  1  0  0  0  0  0  0  0  0  0
    3.3017   -0.1772    0.0515 C   0  0  2  0  0  0  0  0  0  0  0  0
    0.9353   -1.0540    0.3575 C   0  0  0  0  0  0  0  0  0  0  0  0
    4.2544    1.0059   -0.1787 C   0  0  1  0  0  0  0  0  0  0  0  0
   -1.3411   -1.6598    0.5766 C   0  0  0  0  0  0  0  0  0  0  0  0
   -4.3335    2.0498    0.6259 C   0  0  0  0  0  0  0  0  0  0  0  0
    5.7417    0.6574   -0.2016 C   0  0  0  0  0  0  0  0  0  0  0  0
    6.3370    0.0895    1.0725 C   0  0  0  0  0  0  0  0  0  0  0  0
   -2.4555    0.3104   -1.0535 H   0  0  0  0  0  0  0  0  0  0  0  0
   -5.2546   -0.8692   -1.0790 H   0  0  0  0  0  0  0  0  0  0  0  0
   -2.8018   -0.3374    1.3767 H   0  0  0  0  0  0  0  0  0  0  0  0
   -5.2155    0.1653    1.1619 H   0  0  0  0  0  0  0  0  0  0  0  0
    3.5583   -0.6181    1.0232 H   0  0  0  0  0  0  0  0  0  0  0  0
    1.4901    0.6477   -0.8366 H   0  0  0  0  0  0  0  0  0  0  0  0
    1.0872   -1.8061   -0.4244 H   0  0  0  0  0  0  0  0  0  0  0  0
    1.1730   -1.4858    1.3371 H   0  0  0  0  0  0  0  0  0  0  0  0
    4.1136    1.7683    0.5950 H   0  0  0  0  0  0  0  0  0  0  0  0
   -3.2967    1.8127    0.8749 H   0  0  0  0  0  0  0  0  0  0  0  0
   -4.3488    2.7684   -0.2000 H   0  0  0  0  0  0  0  0  0  0  0  0
   -1.9940   -1.6854   -1.8649 H   0  0  0  0  0  0  0  0  0  0  0  0
   -5.6242    1.0729   -2.1682 H   0  0  0  0  0  0  0  0  0  0  0  0
   -3.4502   -2.4050    1.8369 H   0  0  0  0  0  0  0  0  0  0  0  0
   -6.8240    1.7022    0.7354 H   0  0  0  0  0  0  0  0  0  0  0  0
    4.4441   -1.4985   -0.8309 H   0  0  0  0  0  0  0  0  0  0  0  0
    0.6081    1.3052    1.1593 H   0  0  0  0  0  0  0  0  0  0  0  0
    3.9808    0.9244   -2.1104 H   0  0  0  0  0  0  0  0  0  0  0  0
    6.2210    0.8216    1.8762 H   0  0  0  0  0  0  0  0  0  0  0  0
    5.8304   -0.8435    1.3295 H   0  0  0  0  0  0  0  0  0  0  0  0
   -4.4016    3.4775    1.9466 H   0  0  0  0  0  0  0  0  0  0  0  0
    8.0480   -0.5284    1.7402 H   0  0  0  0  0  0  0  0  0  0  0  0
  1 19  1  0  0  0  0
  1 21  1  0  0  0  0
  2 13  1  0  0  0  0
  2 36  1  0  0  0  0
  3 14  1  0  0  0  0
  3 37  1  0  0  0  0
  4 15  1  0  0  0  0
  4 38  1  0  0  0  0
  5 16  1  0  0  0  0
  5 39  1  0  0  0  0
  6 18  1  0  0  0  0
  6 40  1  0  0  0  0
  7 17  1  0  0  0  0
  7 41  1  0  0  0  0
  8 20  1  0  0  0  0
  8 42  1  0  0  0  0
  9 22  1  0  0  0  0
  9 45  1  0  0  0  0
 10 21  2  0  0  0  0
 11 23  2  0  0  0  0
 12 24  1  0  0  0  0
 12 46  1  0  0  0  0
 13 14  1  0  0  0  0
 13 15  1  0  0  0  0
 13 25  1  0  0  0  0
 14 16  1  0  0  0  0
 14 26  1  0  0  0  0
 15 21  1  0  0  0  0
 15 27  1  0  0  0  0
 16 22  1  0  0  0  0
 16 28  1  0  0  0  0
 17 18  1  0  0  0  0
 17 19  1  0  0  0  0
 17 30  1  0  0  0  0
 18 20  1  0  0  0  0
 18 29  1  0  0  0  0
 19 31  1  0  0  0  0
 19 32  1  0  0  0  0
 20 23  1  0  0  0  0
 20 33  1  0  0  0  0
 22 34  1  0  0  0  0
 22 35  1  0  0  0  0
 23 24  1  0  0  0  0
 24 43  1  0  0  0  0
 24 44  1  0  0  0  0
M  END
> <PUBCHEM_COMPOUND_CID>
129827276

> <PUBCHEM_CONFORMER_RMSD>
1

> <PUBCHEM_CONFORMER_DIVERSEORDER>
1
136
109
8
222
21
65
37
126
119
218
102
189
9
239
101
94
207
179
233
92
241
93
221
97
217
118
220
237
227
202
112
108
125
42
28
130
230
107
80
132
167
184
158
149
192
199
71
105
81
182
161
4
111
19
201
160
70
243
72
186
164
226
195
176
177
20
114
175
104
30
74
61
110
87
231
162
248
27
139
193
232
95
79
24
240
47
253
29
50
228
249
77
209
128
140
103
171
196
84
82
242
76
44
224
146
83
168
142
213
43
73
170
134
165
78
147
11
66
200
236
106
238
183
203
96
6
115
187
156
229
67
99
117
214
210
13
138
251
197
152
113
34
40
245
25
215
90
57
123
16
51
22
150
211
88
56
124
154
191
250
68
62
212
17
216
35
127
89
36
31
63
75
143
198
135
172
166
58
85
98
100
252
153
2
235
206
54
185
223
60
169
121
145
219
7
122
86
15
155
181
45
14
159
69
151
120
64
180
5
3
131
190
225
204
133
38
55
116
173
163
205
174
148
46
41
12
32
188
48
234
244
194
10
129
137
39
208
91
247
49
178
59
23
52
246
33
141
157
144
53
26
18

> <PUBCHEM_MMFF94_PARTIAL_CHARGES>
33
1 -0.43
10 -0.57
11 -0.57
12 -0.68
13 0.28
14 0.28
15 0.34
16 0.28
17 0.28
18 0.28
19 0.28
2 -0.68
20 0.34
21 0.66
22 0.28
23 0.45
24 0.34
3 -0.68
36 0.4
37 0.4
38 0.4
39 0.4
4 -0.68
40 0.4
41 0.4
42 0.4
45 0.4
46 0.4
5 -0.68
6 -0.68
7 -0.68
8 -0.68
9 -0.68

> <PUBCHEM_EFFECTIVE_ROTOR_COUNT>
12

> <PUBCHEM_PHARMACOPHORE_FEATURES>
20
1 10 acceptor
1 11 acceptor
1 12 acceptor
1 12 donor
1 2 acceptor
1 2 donor
1 3 acceptor
1 3 donor
1 4 acceptor
1 4 donor
1 5 acceptor
1 5 donor
1 6 acceptor
1 6 donor
1 7 acceptor
1 7 donor
1 8 acceptor
1 8 donor
1 9 acceptor
1 9 donor

> <PUBCHEM_HEAVY_ATOM_COUNT>
24

> <PUBCHEM_ATOM_DEF_STEREO_COUNT>
7

> <PUBCHEM_ATOM_UDEF_STEREO_COUNT>
0

> <PUBCHEM_BOND_DEF_STEREO_COUNT>
0

> <PUBCHEM_BOND_UDEF_STEREO_COUNT>
0

> <PUBCHEM_ISOTOPIC_ATOM_COUNT>
0

> <PUBCHEM_COMPONENT_COUNT>
1

> <PUBCHEM_CACTVS_TAUTO_COUNT>
10

> <PUBCHEM_CONFORMER_ID>
07BD01CC00000001

> <PUBCHEM_MMFF94_ENERGY>
41.1627

> <PUBCHEM_FEATURE_SELFOVERLAP>
101.58

> <PUBCHEM_SHAPE_FINGERPRINT>
10 15 17095248024895575021
10447042 23 13183024008233031196
10670039 82 18271518724376538313
11089746 13 18201994456699846544
11796584 16 18334294306215419482
12390115 104 18260559930536843731
12616971 3 16298391292223190222
13177829 73 18412265016982007472
14251752 14 18341896286037099720
14251764 18 18114179756670299491
14251764 30 11963379727242415392
15183329 4 18187081759112273668
15352257 5 12324232842051091904
15716309 27 10231761093355707364
15880784 105 11169924882976442895
17857418 61 10303815367194225876
195137 175 18187653531419670724
20281389 69 17676202494207016804
20645477 56 17603298267488694663
21150785 3 14979951475971055856
21315759 148 13767923507958294392
21756936 100 18342176649018233443
21774942 28 17775007830663272984
22393880 68 17060328656378353423
23081809 10 17458623471550556982
23198884 109 17703789206809555381
23402539 116 18410006671986088870
23402655 69 18272651242416189438
23559900 14 18130497647783096080
2838139 119 18272928327794041808
300161 21 17561082505813582230
3009799 131 17275101743479289304
351380 3 10879992458524944941
445580 204 18272934890783677593
4938544 92 11819540507890306375
5104073 3 17677331753110627064
5283173 99 17775000189383684120
5385378 56 18261392183107841459
59755656 520 18186517722205585763
6299153 45 18261671455298559706

> <PUBCHEM_SHAPE_MULTIPOLES>
423.48
18.33
2.2
1.4
17.75
0.22
0.37
-8.35
0.04
-3.07
-0.69
-0.79
-0.28
-1.21

> <PUBCHEM_SHAPE_SELFOVERLAP>
828.828

> <PUBCHEM_SHAPE_VOLUME>
251.3

> <PUBCHEM_COORDINATE_TYPE>
2
5
10