129856167
  -OEChem-05042113263D

 43 42  0     1  0  0  0  0  0999 V2000
   -2.1641   -0.1435   -1.6354 O   0  0  0  0  0  0  0  0  0  0  0  0
   -2.6721    2.2161   -0.0614 O   0  0  0  0  0  0  0  0  0  0  0  0
    0.4030    0.1998    2.0462 O   0  0  0  0  0  0  0  0  0  0  0  0
   -4.1782   -0.5795    1.4206 O   0  0  0  0  0  0  0  0  0  0  0  0
    2.6408    1.3817    1.1773 O   0  0  0  0  0  0  0  0  0  0  0  0
   -0.0837    2.3503   -0.5060 O   0  0  0  0  0  0  0  0  0  0  0  0
   -5.8047   -1.9026   -0.3943 O   0  0  0  0  0  0  0  0  0  0  0  0
    2.9352    1.2876   -1.7348 N   0  0  2  0  0  0  0  0  0  0  0  0
    3.8543   -0.7870   -0.6435 C   0  0  2  0  0  0  0  0  0  0  0  0
    2.6287    0.1308   -0.8917 C   0  0  1  0  0  0  0  0  0  0  0  0
    3.4344   -2.0535    0.1345 C   0  0  0  0  0  0  0  0  0  0  0  0
   -1.9322    1.0998    0.4106 C   0  0  1  0  0  0  0  0  0  0  0  0
   -2.4228   -0.2067   -0.2320 C   0  0  1  0  0  0  0  0  0  0  0  0
    2.0042    0.6776    0.3918 C   0  0  0  0  0  0  0  0  0  0  0  0
    0.5468    0.3331    0.6455 C   0  0  2  0  0  0  0  0  0  0  0  0
    5.0289   -0.0778    0.0446 C   0  0  0  0  0  0  0  0  0  0  0  0
   -0.4528    1.3573    0.1231 C   0  0  0  0  0  0  0  0  0  0  0  0
   -3.9184   -0.4754    0.0206 C   0  0  1  0  0  0  0  0  0  0  0  0
    4.5646   -3.0536    0.3381 C   0  0  0  0  0  0  0  0  0  0  0  0
   -4.4120   -1.7545   -0.6536 C   0  0  0  0  0  0  0  0  0  0  0  0
    4.2146   -1.1134   -1.6297 H   0  0  0  0  0  0  0  0  0  0  0  0
    1.8699   -0.4581   -1.4213 H   0  0  0  0  0  0  0  0  0  0  0  0
    2.6244   -2.5541   -0.4104 H   0  0  0  0  0  0  0  0  0  0  0  0
    3.0320   -1.7810    1.1174 H   0  0  0  0  0  0  0  0  0  0  0  0
   -2.0610    1.0701    1.4973 H   0  0  0  0  0  0  0  0  0  0  0  0
   -1.8533   -1.0510    0.1736 H   0  0  0  0  0  0  0  0  0  0  0  0
    0.3421   -0.6425    0.1982 H   0  0  0  0  0  0  0  0  0  0  0  0
    4.8376    0.0882    1.1092 H   0  0  0  0  0  0  0  0  0  0  0  0
    5.2460    0.8886   -0.4207 H   0  0  0  0  0  0  0  0  0  0  0  0
    5.9430   -0.6757   -0.0357 H   0  0  0  0  0  0  0  0  0  0  0  0
   -4.5175    0.3624   -0.3568 H   0  0  0  0  0  0  0  0  0  0  0  0
    2.0717    1.7694   -1.9831 H   1  0  0  0  0  0  0  0  0  0  0  0
    3.3461    0.9702   -2.6119 H   0  0  0  0  0  0  0  0  0  0  0  0
    5.3314   -2.6639    1.0140 H   0  0  0  0  0  0  0  0  0  0  0  0
    5.0368   -3.3132   -0.6146 H   0  0  0  0  0  0  0  0  0  0  0  0
    4.1730   -3.9741    0.7833 H   0  0  0  0  0  0  0  0  0  0  0  0
   -4.2637   -1.7221   -1.7369 H   0  0  0  0  0  0  0  0  0  0  0  0
   -3.9028   -2.6320   -0.2417 H   0  0  0  0  0  0  0  0  0  0  0  0
   -1.2015   -0.1764   -1.7652 H   0  0  0  0  0  0  0  0  0  0  0  0
   -2.6380    2.2041   -1.0334 H   0  0  0  0  0  0  0  0  0  0  0  0
    0.5856    1.0649    2.4517 H   0  0  0  0  0  0  0  0  0  0  0  0
   -5.1304   -0.7441    1.5299 H   0  0  0  0  0  0  0  0  0  0  0  0
   -6.0891   -2.7247   -0.8289 H   0  0  0  0  0  0  0  0  0  0  0  0
  1 13  1  0  0  0  0
  1 39  1  0  0  0  0
  2 12  1  0  0  0  0
  2 40  1  0  0  0  0
  3 15  1  0  0  0  0
  3 41  1  0  0  0  0
  4 18  1  0  0  0  0
  4 42  1  0  0  0  0
  5 14  2  0  0  0  0
  6 17  2  0  0  0  0
  7 20  1  0  0  0  0
  7 43  1  0  0  0  0
  8 10  1  0  0  0  0
  8 32  1  0  0  0  0
  8 33  1  0  0  0  0
  9 10  1  0  0  0  0
  9 11  1  0  0  0  0
  9 16  1  0  0  0  0
  9 21  1  0  0  0  0
 10 14  1  0  0  0  0
 10 22  1  0  0  0  0
 11 19  1  0  0  0  0
 11 23  1  0  0  0  0
 11 24  1  0  0  0  0
 12 13  1  0  0  0  0
 12 17  1  0  0  0  0
 12 25  1  0  0  0  0
 13 18  1  0  0  0  0
 13 26  1  0  0  0  0
 14 15  1  0  0  0  0
 15 17  1  0  0  0  0
 15 27  1  0  0  0  0
 16 28  1  0  0  0  0
 16 29  1  0  0  0  0
 16 30  1  0  0  0  0
 18 20  1  0  0  0  0
 18 31  1  0  0  0  0
 19 34  1  0  0  0  0
 19 35  1  0  0  0  0
 19 36  1  0  0  0  0
 20 37  1  0  0  0  0
 20 38  1  0  0  0  0
M  ISO  1  32   2
M  END
> <PUBCHEM_COMPOUND_CID>
129856167

> <PUBCHEM_CONFORMER_RMSD>
1.2

> <PUBCHEM_CONFORMER_DIVERSEORDER>
1
104
61
98
34
84
99
49
18
117
124
68
65
109
7
199
173
182
13
184
111
136
75
156
27
134
142
17
140
67
185
105
83
163
144
91
76
121
108
102
72
198
52
30
208
54
100
131
209
103
171
201
26
122
80
130
116
45
110
55
23
202
58
36
148
33
120
150
128
78
16
161
206
44
197
203
62
176
42
6
106
127
10
174
164
146
169
141
73
5
137
15
57
47
167
200
94
28
188
74
175
145
177
113
114
19
32
12
97
195
138
186
21
35
70
193
63
107
48
9
46
51
159
207
53
66
96
155
189
152
160
69
194
22
60
41
157
31
101
139
95
43
64
129
166
11
204
39
90
162
20
8
85
183
87
181
192
196
125
147
119
40
172
88
178
180
71
79
25
133
3
168
2
205
149
81
158
29
165
170
56
77
37
135
143
179
86
50
151
14
118
115
92
82
112
4
89
187
132
123
59
191
154
93
24
126
190
153
38

> <PUBCHEM_MMFF94_PARTIAL_CHARGES>
23
1 -0.68
10 0.33
12 0.34
13 0.28
14 0.45
15 0.4
17 0.45
18 0.28
2 -0.68
20 0.28
3 -0.68
32 0.36
33 0.36
39 0.4
4 -0.68
40 0.4
41 0.4
42 0.4
43 0.4
5 -0.57
6 -0.57
7 -0.68
8 -0.99

> <PUBCHEM_EFFECTIVE_ROTOR_COUNT>
9

> <PUBCHEM_PHARMACOPHORE_FEATURES>
17
1 1 acceptor
1 1 donor
1 15 anion
1 16 hydrophobe
1 19 hydrophobe
1 2 acceptor
1 2 donor
1 3 acceptor
1 3 donor
1 4 acceptor
1 4 donor
1 5 acceptor
1 6 acceptor
1 7 acceptor
1 7 donor
1 8 cation
1 8 donor

> <PUBCHEM_HEAVY_ATOM_COUNT>
20

> <PUBCHEM_ATOM_DEF_STEREO_COUNT>
5

> <PUBCHEM_ATOM_UDEF_STEREO_COUNT>
1

> <PUBCHEM_BOND_DEF_STEREO_COUNT>
0

> <PUBCHEM_BOND_UDEF_STEREO_COUNT>
0

> <PUBCHEM_ISOTOPIC_ATOM_COUNT>
1

> <PUBCHEM_COMPONENT_COUNT>
1

> <PUBCHEM_CACTVS_TAUTO_COUNT>
128

> <PUBCHEM_CONFORMER_ID>
07BD72A700000001

> <PUBCHEM_MMFF94_ENERGY>
23.6163

> <PUBCHEM_FEATURE_SELFOVERLAP>
86.309

> <PUBCHEM_SHAPE_FINGERPRINT>
10062212 137 18264489473166642858
10498660 4 12252196146996731502
11405975 8 18201156555345431393
11796584 16 18127412250709873350
12596602 18 17132119069043493026
12633257 1 15913042179329361111
12670546 177 17458350783522799414
12824470 246 18201721700216538162
12892183 10 14476691788429151239
13675066 3 14476971059992583177
13955234 65 17983856967382026681
14178342 30 17058099796443788882
1420 369 18412546479242816142
14251751 18 18342451496275357130
14251764 30 18187939429822403955
14252887 29 18268141131818917041
14576447 43 18408889529712878142
15239191 94 18342458114698231378
15342816 4 18342469144353609132
15375462 189 17918268749543195086
17492 89 18268149764851375134
17857418 61 18343299271364317319
17959699 21 11314292950411435823
1813 80 18271818937941984237
18186145 218 16588031211895283324
18915474 69 18334860515046386414
19422 9 18335991891015523461
19784866 135 18273211976551406667
200 152 18040438793218825568
20281475 54 18340488872372350560
20388580 30 18336548338773567709
20626108 58 18262511478029949402
21069387 34 18115600223321046186
22950370 63 18410299137963516427
23402539 116 17822294535776150588
23503953 91 15554443032997975471
23503958 8 18341048514968923345
23557571 272 17895458293734610829
23559900 14 18341881983422074817
270888 7 8934992676999618878
2838139 119 12107787436313018590
3060560 45 16153704345353041346
3286 77 18343017779149396800
34797466 226 16371014069871989383
4259306 186 18334856138791294455
465052 167 18198912585927007087
474 4 8070035475420041127
4990 188 17240205430341113706
5104073 3 18059851714995377562
633830 44 16806184137510480572
76465 3 18412260601908581914
7970288 3 18267582584576914543
83771 10 18272371992243100489
88748 71 18265619784021287714
9709674 26 18115319890710574042

> <PUBCHEM_SHAPE_MULTIPOLES>
365.52
10.99
2.49
1.28
3.97
0.91
0.08
8.53
-0.84
-0.66
-0.07
-0.08
-0.21
-0.7

> <PUBCHEM_SHAPE_SELFOVERLAP>
708.396

> <PUBCHEM_SHAPE_VOLUME>
219.6

> <PUBCHEM_COORDINATE_TYPE>
2
5
10