129856232
  -OEChem-05042113263D

 48 49  0     1  0  0  0  0  0999 V2000
    0.8090    1.6772   -0.4360 O   0  0  0  0  0  0  0  0  0  0  0  0
   -3.7088    2.1841    0.1866 O   0  0  0  0  0  0  0  0  0  0  0  0
   -3.1114   -0.0561   -2.5762 O   0  0  0  0  0  0  0  0  0  0  0  0
   -3.2259   -1.4515    0.0025 O   0  0  0  0  0  0  0  0  0  0  0  0
   -3.7107   -1.1538    2.7271 O   0  0  0  0  0  0  0  0  0  0  0  0
   -0.5619   -0.0627   -1.9178 O   0  0  0  0  0  0  0  0  0  0  0  0
    1.0409    3.5760    0.8515 O   0  0  0  0  0  0  0  0  0  0  0  0
    3.0668   -1.8027   -1.4546 N   0  0  0  0  0  0  0  0  0  0  0  0
    3.6907    3.2569    1.0704 N   0  0  2  0  0  0  0  0  0  0  0  0
   -3.6145    0.9072   -0.4380 C   0  0  1  0  0  0  0  0  0  0  0  0
    3.1819    0.8599    1.0893 C   0  0  0  0  0  0  0  0  0  0  0  0
    2.9287   -0.3438    0.2126 C   0  0  0  0  0  0  0  0  0  0  0  0
   -2.7237    0.9844   -1.6875 C   0  0  1  0  0  0  0  0  0  0  0  0
   -3.2091   -0.1556    0.6002 C   0  0  1  0  0  0  0  0  0  0  0  0
    2.9854    2.1926    0.3540 C   0  0  1  0  0  0  0  0  0  0  0  0
    1.9813   -1.3792    0.4480 C   0  0  0  0  0  0  0  0  0  0  0  0
    2.0883   -2.2814   -0.6126 C   0  0  0  0  0  0  0  0  0  0  0  0
    3.5804   -0.6322   -0.9642 C   0  0  0  0  0  0  0  0  0  0  0  0
   -1.2226    0.8574   -1.4333 C   0  0  0  0  0  0  0  0  0  0  0  0
   -4.1621   -0.1757    1.7957 C   0  0  0  0  0  0  0  0  0  0  0  0
   -0.5729    1.9338   -0.5850 C   0  0  0  0  0  0  0  0  0  0  0  0
    1.5179    2.5837    0.3155 C   0  0  0  0  0  0  0  0  0  0  0  0
    1.0401   -1.6361    1.4646 C   0  0  0  0  0  0  0  0  0  0  0  0
    1.2981   -3.4324   -0.7077 C   0  0  0  0  0  0  0  0  0  0  0  0
    0.2427   -2.7835    1.3826 C   0  0  0  0  0  0  0  0  0  0  0  0
    0.3714   -3.6665    0.3123 C   0  0  0  0  0  0  0  0  0  0  0  0
   -4.6293    0.6563   -0.7769 H   0  0  0  0  0  0  0  0  0  0  0  0
    2.5469    0.8198    1.9830 H   0  0  0  0  0  0  0  0  0  0  0  0
    4.2190    0.7739    1.4427 H   0  0  0  0  0  0  0  0  0  0  0  0
   -2.8799    1.9305   -2.2174 H   0  0  0  0  0  0  0  0  0  0  0  0
   -2.1943    0.0208    0.9720 H   0  0  0  0  0  0  0  0  0  0  0  0
    3.3643    2.1682   -0.6737 H   0  0  0  0  0  0  0  0  0  0  0  0
    4.3644   -0.1130   -1.4977 H   0  0  0  0  0  0  0  0  0  0  0  0
   -4.1927    0.7921    2.3046 H   0  0  0  0  0  0  0  0  0  0  0  0
   -5.1735   -0.4568    1.4841 H   0  0  0  0  0  0  0  0  0  0  0  0
    3.3626   -2.2514   -2.3105 H   0  0  0  0  0  0  0  0  0  0  0  0
   -0.7176    2.8946   -1.0906 H   0  0  0  0  0  0  0  0  0  0  0  0
   -1.0438    1.9489    0.4012 H   0  0  0  0  0  0  0  0  0  0  0  0
    0.9226   -0.9585    2.3052 H   0  0  0  0  0  0  0  0  0  0  0  0
    1.3971   -4.1200   -1.5409 H   0  0  0  0  0  0  0  0  0  0  0  0
    3.6107    4.1302    0.5502 H   1  0  0  0  0  0  0  0  0  0  0  0
    4.6864    3.0419    1.1081 H   0  0  0  0  0  0  0  0  0  0  0  0
   -4.0395    2.8139   -0.4763 H   0  0  0  0  0  0  0  0  0  0  0  0
   -0.4871   -2.9851    2.1623 H   0  0  0  0  0  0  0  0  0  0  0  0
   -3.0084   -0.9033   -2.1101 H   0  0  0  0  0  0  0  0  0  0  0  0
   -0.2592   -4.5508    0.2681 H   0  0  0  0  0  0  0  0  0  0  0  0
   -2.9619   -2.0916    0.6854 H   0  0  0  0  0  0  0  0  0  0  0  0
   -4.3364   -1.1482    3.4715 H   0  0  0  0  0  0  0  0  0  0  0  0
  1 21  1  0  0  0  0
  1 22  1  0  0  0  0
  2 10  1  0  0  0  0
  2 43  1  0  0  0  0
  3 13  1  0  0  0  0
  3 45  1  0  0  0  0
  4 14  1  0  0  0  0
  4 47  1  0  0  0  0
  5 20  1  0  0  0  0
  5 48  1  0  0  0  0
  6 19  2  0  0  0  0
  7 22  2  0  0  0  0
  8 17  1  0  0  0  0
  8 18  1  0  0  0  0
  8 36  1  0  0  0  0
  9 15  1  0  0  0  0
  9 41  1  0  0  0  0
  9 42  1  0  0  0  0
 10 13  1  0  0  0  0
 10 14  1  0  0  0  0
 10 27  1  0  0  0  0
 11 12  1  0  0  0  0
 11 15  1  0  0  0  0
 11 28  1  0  0  0  0
 11 29  1  0  0  0  0
 12 16  1  0  0  0  0
 12 18  2  0  0  0  0
 13 19  1  0  0  0  0
 13 30  1  0  0  0  0
 14 20  1  0  0  0  0
 14 31  1  0  0  0  0
 15 22  1  0  0  0  0
 15 32  1  0  0  0  0
 16 17  1  0  0  0  0
 16 23  2  0  0  0  0
 17 24  2  0  0  0  0
 18 33  1  0  0  0  0
 19 21  1  0  0  0  0
 20 34  1  0  0  0  0
 20 35  1  0  0  0  0
 21 37  1  0  0  0  0
 21 38  1  0  0  0  0
 23 25  1  0  0  0  0
 23 39  1  0  0  0  0
 24 26  1  0  0  0  0
 24 40  1  0  0  0  0
 25 26  2  0  0  0  0
 25 44  1  0  0  0  0
 26 46  1  0  0  0  0
M  ISO  1  41   2
M  END
> <PUBCHEM_COMPOUND_CID>
129856232

> <PUBCHEM_CONFORMER_RMSD>
1.4

> <PUBCHEM_CONFORMER_DIVERSEORDER>
1
51
102
59
16
78
103
84
72
11
46
6
27
13
40
25
89
47
73
36
8
61
15
97
68
31
30
54
86
50
104
70
105
49
57
109
82
91
33
75
22
90
93
48
108
21
81
41
37
71
106
92
85
94
32
5
107
38
101
17
26
62
42
77
64
110
24
10
39
65
74
9
76
12
98
52
23
63
83
43
79
14
55
95
53
3
19
80
60
67
29
88
100
20
35
4
2
44
28
58
45
34
56
66
96
7
87
18
69
99

> <PUBCHEM_MMFF94_PARTIAL_CHARGES>
37
1 -0.43
10 0.28
11 0.18
12 -0.18
13 0.34
14 0.28
15 0.33
17 -0.15
18 -0.3
19 0.45
2 -0.68
20 0.28
21 0.34
22 0.66
23 -0.15
24 -0.15
25 -0.15
26 -0.15
3 -0.68
33 0.15
36 0.27
39 0.15
4 -0.68
40 0.15
41 0.36
42 0.36
43 0.4
44 0.15
45 0.4
46 0.15
47 0.4
48 0.4
5 -0.68
6 -0.57
7 -0.57
8 0.03
9 -0.99

> <PUBCHEM_EFFECTIVE_ROTOR_COUNT>
10

> <PUBCHEM_PHARMACOPHORE_FEATURES>
16
1 2 acceptor
1 2 donor
1 3 acceptor
1 3 donor
1 4 acceptor
1 4 donor
1 5 acceptor
1 5 donor
1 6 acceptor
1 7 acceptor
1 8 cation
1 8 donor
1 9 cation
1 9 donor
5 8 12 16 17 18 rings
6 16 17 23 24 25 26 rings

> <PUBCHEM_HEAVY_ATOM_COUNT>
26

> <PUBCHEM_ATOM_DEF_STEREO_COUNT>
4

> <PUBCHEM_ATOM_UDEF_STEREO_COUNT>
0

> <PUBCHEM_BOND_DEF_STEREO_COUNT>
0

> <PUBCHEM_BOND_UDEF_STEREO_COUNT>
0

> <PUBCHEM_ISOTOPIC_ATOM_COUNT>
1

> <PUBCHEM_COMPONENT_COUNT>
1

> <PUBCHEM_CACTVS_TAUTO_COUNT>
110

> <PUBCHEM_CONFORMER_ID>
07BD72E800000001

> <PUBCHEM_MMFF94_ENERGY>
37.2896

> <PUBCHEM_FEATURE_SELFOVERLAP>
81.314

> <PUBCHEM_SHAPE_FINGERPRINT>
10366900 7 18188486861594195879
10675989 125 16388146282051861652
11370993 70 18267300022471545449
12035758 1 18412261762256406834
12156800 1 17251497625211726052
12553582 1 17980186500909350292
12596599 1 17988638592889972591
12788726 201 17114378144049406574
13224815 77 17531534178699392975
13402501 40 18187096048004601387
13583140 156 18340493257882580605
15635459 17 18263074444783243359
19930381 70 18411134736635505171
20600515 1 16236422529082113266
21197605 99 17688871256335542059
238 59 18049406448799161679
35225 105 17550680245225011289
3524813 1 18187096064978774699
5282274 181 18047205325193994403
6287921 2 18195268795407152659
81228 2 17116322106588634656
9862522 239 17907007740408936752

> <PUBCHEM_SHAPE_MULTIPOLES>
484.02
7.25
4.37
1.96
5.14
0.14
-0.07
-1.57
1.12
-3.48
1.06
1.71
0.43
2

> <PUBCHEM_SHAPE_SELFOVERLAP>
1012.45

> <PUBCHEM_SHAPE_VOLUME>
272.8

> <PUBCHEM_COORDINATE_TYPE>
2
5
10