129856202
  -OEChem-05042113263D

 41 41  0     1  0  0  0  0  0999 V2000
    1.0064   -1.2366   -1.3524 O   0  0  0  0  0  0  0  0  0  0  0  0
    3.3540    1.5601   -1.3831 O   0  0  0  0  0  0  0  0  0  0  0  0
    4.1873   -0.5007    0.2165 O   0  0  0  0  0  0  0  0  0  0  0  0
   -0.5734    2.8190   -1.3117 O   0  0  0  0  0  0  0  0  0  0  0  0
    1.6915    1.9379    0.7414 O   0  0  0  0  0  0  0  0  0  0  0  0
   -1.8784    2.5106    0.9603 O   0  0  0  0  0  0  0  0  0  0  0  0
    3.5025   -2.8480    1.6208 O   0  0  0  0  0  0  0  0  0  0  0  0
   -0.5553    0.7237    2.8259 N   0  0  2  0  0  0  0  0  0  0  0  0
   -2.3763   -1.7120   -0.4505 N   0  0  0  0  0  0  0  0  0  0  0  0
   -4.3385   -1.2866   -1.3994 N   0  0  0  0  0  0  0  0  0  0  0  0
    2.2795   -0.5888   -1.2106 C   0  0  1  0  0  0  0  0  0  0  0  0
    2.0871    0.9189   -1.4094 C   0  0  1  0  0  0  0  0  0  0  0  0
    2.8521   -1.0188    0.1555 C   0  0  1  0  0  0  0  0  0  0  0  0
   -0.2842    1.6375   -0.5951 C   0  0  1  0  0  0  0  0  0  0  0  0
   -1.0585    0.3060    1.5177 C   0  0  2  0  0  0  0  0  0  0  0  0
    1.2102    1.5386   -0.3204 C   0  0  0  0  0  0  0  0  0  0  0  0
   -1.1440    1.5674    0.6587 C   0  0  0  0  0  0  0  0  0  0  0  0
   -2.4203   -0.3821    1.6972 C   0  0  0  0  0  0  0  0  0  0  0  0
    2.9229   -2.5319    0.3627 C   0  0  0  0  0  0  0  0  0  0  0  0
   -3.0266   -0.8621    0.3993 C   0  0  0  0  0  0  0  0  0  0  0  0
   -4.2351   -0.6139   -0.2076 C   0  0  0  0  0  0  0  0  0  0  0  0
   -3.2028   -1.9380   -1.5159 C   0  0  0  0  0  0  0  0  0  0  0  0
    2.9427   -0.9648   -2.0002 H   0  0  0  0  0  0  0  0  0  0  0  0
    1.6279    1.1310   -2.3805 H   0  0  0  0  0  0  0  0  0  0  0  0
    2.2858   -0.5834    0.9851 H   0  0  0  0  0  0  0  0  0  0  0  0
   -0.5963    0.7908   -1.2149 H   0  0  0  0  0  0  0  0  0  0  0  0
   -0.3434   -0.3908    1.0685 H   0  0  0  0  0  0  0  0  0  0  0  0
   -3.1318    0.3050    2.1749 H   0  0  0  0  0  0  0  0  0  0  0  0
   -2.3188   -1.2476    2.3652 H   0  0  0  0  0  0  0  0  0  0  0  0
    1.9252   -2.9801    0.3263 H   0  0  0  0  0  0  0  0  0  0  0  0
    3.5479   -2.9922   -0.4101 H   0  0  0  0  0  0  0  0  0  0  0  0
    0.6774   -1.0382   -2.2457 H   0  0  0  0  0  0  0  0  0  0  0  0
    0.3901    1.0923    2.7263 H   1  0  0  0  0  0  0  0  0  0  0  0
   -0.4783   -0.0879    3.4380 H   0  0  0  0  0  0  0  0  0  0  0  0
    3.7691    1.3818   -0.5225 H   0  0  0  0  0  0  0  0  0  0  0  0
    4.5598   -0.7603    1.0765 H   0  0  0  0  0  0  0  0  0  0  0  0
   -0.3109    2.6748   -2.2368 H   0  0  0  0  0  0  0  0  0  0  0  0
   -1.4532   -2.1039   -0.3191 H   0  0  0  0  0  0  0  0  0  0  0  0
   -5.0370    0.0152    0.1512 H   0  0  0  0  0  0  0  0  0  0  0  0
    3.5238   -3.8176    1.6904 H   0  0  0  0  0  0  0  0  0  0  0  0
   -2.9189   -2.5818   -2.3361 H   0  0  0  0  0  0  0  0  0  0  0  0
  1 11  1  0  0  0  0
  1 32  1  0  0  0  0
  2 12  1  0  0  0  0
  2 35  1  0  0  0  0
  3 13  1  0  0  0  0
  3 36  1  0  0  0  0
  4 14  1  0  0  0  0
  4 37  1  0  0  0  0
  5 16  2  0  0  0  0
  6 17  2  0  0  0  0
  7 19  1  0  0  0  0
  7 40  1  0  0  0  0
  8 15  1  0  0  0  0
  8 33  1  0  0  0  0
  8 34  1  0  0  0  0
  9 20  1  0  0  0  0
  9 22  1  0  0  0  0
  9 38  1  0  0  0  0
 10 21  1  0  0  0  0
 10 22  2  0  0  0  0
 11 12  1  0  0  0  0
 11 13  1  0  0  0  0
 11 23  1  0  0  0  0
 12 16  1  0  0  0  0
 12 24  1  0  0  0  0
 13 19  1  0  0  0  0
 13 25  1  0  0  0  0
 14 16  1  0  0  0  0
 14 17  1  0  0  0  0
 14 26  1  0  0  0  0
 15 17  1  0  0  0  0
 15 18  1  0  0  0  0
 15 27  1  0  0  0  0
 18 20  1  0  0  0  0
 18 28  1  0  0  0  0
 18 29  1  0  0  0  0
 19 30  1  0  0  0  0
 19 31  1  0  0  0  0
 20 21  2  0  0  0  0
 21 39  1  0  0  0  0
 22 41  1  0  0  0  0
M  ISO  1  33   2
M  END
> <PUBCHEM_COMPOUND_CID>
129856202

> <PUBCHEM_CONFORMER_RMSD>
1.2

> <PUBCHEM_CONFORMER_DIVERSEORDER>
1
82
214
88
133
169
47
190
181
24
4
189
179
114
200
168
100
87
68
11
162
90
98
20
108
69
192
165
135
176
173
39
42
180
163
86
111
143
144
151
205
119
127
148
56
72
35
99
182
149
66
32
222
79
83
77
110
92
194
76
17
158
106
164
199
73
63
219
34
152
38
95
60
2
150
184
157
178
134
94
187
16
54
221
191
156
126
15
93
136
41
218
23
204
193
107
105
9
112
206
129
174
159
167
53
18
175
51
202
123
6
78
74
40
139
132
3
122
220
115
207
101
216
50
10
140
160
116
19
125
102
103
208
142
61
217
198
37
172
67
43
22
209
13
137
154
36
130
161
124
147
70
81
170
7
113
186
145
46
85
195
55
91
196
44
201
109
97
71
80
118
215
58
213
65
117
166
197
224
26
211
155
146
59
52
21
138
5
89
171
29
223
8
49
185
28
131
177
203
96
14
64
62
128
121
75
31
45
188
30
33
57
27
48
183
153
141
84
120
25
12
104
210
212

> <PUBCHEM_MMFF94_PARTIAL_CHARGES>
32
1 -0.68
10 -0.57
11 0.28
12 0.34
13 0.28
14 0.4
15 0.33
16 0.45
17 0.45
18 0.18
19 0.28
2 -0.68
20 -0.33
21 0.08
22 0.04
3 -0.68
32 0.4
33 0.36
34 0.36
35 0.4
36 0.4
37 0.4
38 0.27
39 0.15
4 -0.68
40 0.4
41 0.15
5 -0.57
6 -0.57
7 -0.68
8 -0.99
9 0.03

> <PUBCHEM_EFFECTIVE_ROTOR_COUNT>
9

> <PUBCHEM_PHARMACOPHORE_FEATURES>
18
1 1 acceptor
1 1 donor
1 14 anion
1 2 acceptor
1 2 donor
1 3 acceptor
1 3 donor
1 4 acceptor
1 4 donor
1 5 acceptor
1 6 acceptor
1 7 acceptor
1 7 donor
1 8 cation
1 8 donor
1 9 donor
3 9 10 22 cation
5 9 10 20 21 22 rings

> <PUBCHEM_HEAVY_ATOM_COUNT>
22

> <PUBCHEM_ATOM_DEF_STEREO_COUNT>
4

> <PUBCHEM_ATOM_UDEF_STEREO_COUNT>
1

> <PUBCHEM_BOND_DEF_STEREO_COUNT>
0

> <PUBCHEM_BOND_UDEF_STEREO_COUNT>
0

> <PUBCHEM_ISOTOPIC_ATOM_COUNT>
1

> <PUBCHEM_COMPONENT_COUNT>
1

> <PUBCHEM_CACTVS_TAUTO_COUNT>
577

> <PUBCHEM_CONFORMER_ID>
07BD72CA00000001

> <PUBCHEM_MMFF94_ENERGY>
24.7541

> <PUBCHEM_FEATURE_SELFOVERLAP>
91.388

> <PUBCHEM_SHAPE_FINGERPRINT>
11578080 2 18129361791963310841
12156800 1 17035508113615878015
12422481 6 17836679352187357905
12553582 1 18128837363607665079
12633257 1 13684368273304868127
12715332 25 17902792964242176213
12788726 201 18129680633408366289
13004483 165 18339630149427563815
13083527 12 18269537464325506976
13911987 19 17246709200549524100
14081887 123 17131558236619438723
14251757 17 16732975414764328459
14251764 38 8643334011262085462
14787075 74 17129022977786709104
18186145 218 16153421779322742621
192875 21 18409449189178167986
19777482 4 18262235508689466219
20442098 301 18129402430779659188
20626108 58 18129085874890181871
23419403 2 17485606525718986449
23526113 38 17313671580399726617
23557571 272 16200159776546624555
23559900 14 16629702668159527829
3797600 57 16629966645924791144
5161694 15 16298107583547065003
5283178 26 16403117244669717623
6338986 31 18411982472616208941
6438754 60 17823399536182577987
85463 6 18130782343647746079
9925002 15 16162386956385254083

> <PUBCHEM_SHAPE_MULTIPOLES>
396.72
7.16
3
1.96
1.03
0.13
-0.73
-4.86
1.22
-1.09
0.04
0.36
0
-2.04

> <PUBCHEM_SHAPE_SELFOVERLAP>
804.979

> <PUBCHEM_SHAPE_VOLUME>
230

> <PUBCHEM_COORDINATE_TYPE>
2
5
10