129846884
  -OEChem-05042113263D

 28 28  0     1  0  0  0  0  0999 V2000
    1.0015    0.5674    0.9162 O   0  0  0  0  0  0  0  0  0  0  0  0
   -0.0739    0.0216   -1.8538 O   0  0  0  0  0  0  0  0  0  0  0  0
   -0.3295   -1.2642    1.5408 O   0  0  0  0  0  0  0  0  0  0  0  0
    1.9013   -2.3272    0.0019 O   0  0  0  0  0  0  0  0  0  0  0  0
   -2.5073   -0.0894    0.1971 O   0  0  0  0  0  0  0  0  0  0  0  0
    3.1455    2.2314    0.3074 O   0  0  0  0  0  0  0  0  0  0  0  0
    0.1709   -0.8643   -0.7696 C   0  0  2  0  0  0  0  0  0  0  0  0
   -0.1529   -0.2199    0.5801 C   0  0  2  0  0  0  0  0  0  0  0  0
    1.6680   -1.0916   -0.6697 C   0  0  1  0  0  0  0  0  0  0  0  0
    2.1497    0.0621    0.2083 C   0  0  1  0  0  0  0  0  0  0  0  0
   -1.3822    0.6798    0.5835 C   0  0  0  0  0  0  0  0  0  0  0  0
    2.7410    1.2139   -0.5920 C   0  0  0  0  0  0  0  0  0  0  0  0
   -3.6458    0.6492    0.1786 C   0  0  0  0  0  0  0  0  0  0  0  0
   -4.6861    0.4312   -0.6288 C   0  0  0  0  0  0  0  0  0  0  0  0
   -0.3928   -1.7897   -0.9304 H   0  0  0  0  0  0  0  0  0  0  0  0
    2.1754   -1.1336   -1.6387 H   0  0  0  0  0  0  0  0  0  0  0  0
    2.8685   -0.2678    0.9672 H   0  0  0  0  0  0  0  0  0  0  0  0
   -1.2407    1.5341   -0.0920 H   0  0  0  0  0  0  0  0  0  0  0  0
   -1.5320    1.0825    1.5950 H   0  0  0  0  0  0  0  0  0  0  0  0
    2.0026    1.6496   -1.2721 H   0  0  0  0  0  0  0  0  0  0  0  0
    3.6126    0.8849   -1.1662 H   0  0  0  0  0  0  0  0  0  0  0  0
    0.1905   -0.4353   -2.6705 H   0  0  0  0  0  0  0  0  0  0  0  0
   -0.8237   -0.9045    2.2962 H   0  0  0  0  0  0  0  0  0  0  0  0
    2.8639   -2.4309    0.0931 H   0  0  0  0  0  0  0  0  0  0  0  0
    3.5224    2.9521   -0.2256 H   0  0  0  0  0  0  0  0  0  0  0  0
   -3.6664    1.4539    0.9019 H   0  0  0  0  0  0  0  0  0  0  0  0
   -5.5661    1.0624   -0.5783 H   0  0  0  0  0  0  0  0  0  0  0  0
   -4.6736   -0.3783   -1.3500 H   0  0  0  0  0  0  0  0  0  0  0  0
  1  8  1  0  0  0  0
  1 10  1  0  0  0  0
  2  7  1  0  0  0  0
  2 22  1  0  0  0  0
  3  8  1  0  0  0  0
  3 23  1  0  0  0  0
  4  9  1  0  0  0  0
  4 24  1  0  0  0  0
  5 11  1  0  0  0  0
  5 13  1  0  0  0  0
  6 12  1  0  0  0  0
  6 25  1  0  0  0  0
  7  8  1  0  0  0  0
  7  9  1  0  0  0  0
  7 15  1  0  0  0  0
  8 11  1  0  0  0  0
  9 10  1  0  0  0  0
  9 16  1  0  0  0  0
 10 12  1  0  0  0  0
 10 17  1  0  0  0  0
 11 18  1  0  0  0  0
 11 19  1  0  0  0  0
 12 20  1  0  0  0  0
 12 21  1  0  0  0  0
 13 14  2  0  0  0  0
 13 26  1  0  0  0  0
 14 27  1  0  0  0  0
 14 28  1  0  0  0  0
M  END
> <PUBCHEM_COMPOUND_CID>
129846884

> <PUBCHEM_CONFORMER_RMSD>
0.6

> <PUBCHEM_CONFORMER_DIVERSEORDER>
1
12
37
40
19
45
3
39
17
10
15
32
4
13
18
33
46
24
9
41
28
25
50
43
16
26
27
42
34
48
47
30
36
23
2
49
38
52
11
6
31
5
8
51
22
21
14
7
35
29
44
20

> <PUBCHEM_MMFF94_PARTIAL_CHARGES>
21
1 -0.56
10 0.28
11 0.28
12 0.28
13 -0.07
14 -0.3
2 -0.68
22 0.4
23 0.4
24 0.4
25 0.4
26 0.15
27 0.15
28 0.15
3 -0.68
4 -0.68
5 -0.36
6 -0.68
7 0.28
8 0.56
9 0.28

> <PUBCHEM_EFFECTIVE_ROTOR_COUNT>
5

> <PUBCHEM_PHARMACOPHORE_FEATURES>
11
1 1 acceptor
1 2 acceptor
1 2 donor
1 3 acceptor
1 3 donor
1 4 acceptor
1 4 donor
1 5 acceptor
1 6 acceptor
1 6 donor
5 1 7 8 9 10 rings

> <PUBCHEM_HEAVY_ATOM_COUNT>
14

> <PUBCHEM_ATOM_DEF_STEREO_COUNT>
4

> <PUBCHEM_ATOM_UDEF_STEREO_COUNT>
0

> <PUBCHEM_BOND_DEF_STEREO_COUNT>
0

> <PUBCHEM_BOND_UDEF_STEREO_COUNT>
0

> <PUBCHEM_ISOTOPIC_ATOM_COUNT>
0

> <PUBCHEM_COMPONENT_COUNT>
1

> <PUBCHEM_CACTVS_TAUTO_COUNT>
1

> <PUBCHEM_CONFORMER_ID>
07BD4E6400000001

> <PUBCHEM_MMFF94_ENERGY>
39.3755

> <PUBCHEM_FEATURE_SELFOVERLAP>
55.878

> <PUBCHEM_SHAPE_FINGERPRINT>
10219947 1 16587744213917274953
12119455 92 18260540169328731988
12138202 97 18337116781752783587
12423570 1 17487610823768403622
12616999 72 16917071053460544645
13571099 52 18186803620702783257
14993402 34 17060344045203976604
15375462 6 18410576154379227549
15775835 57 17988925616927408676
15852999 172 18114755913674491178
16945 1 18340221686672803434
170605 34 18407757045162137313
18186145 218 18041571239088246649
20231682 184 18341615944589130317
20388701 513 16370994179551231893
20473742 2 18337951195103501774
20645477 70 18270681961799794767
20820808 20 18272651281139389080
21501502 16 17986682471689135409
21524375 3 18200876283302240048
22096605 113 18413109476361503121
22892500 29 18335140869089185660
23402539 116 18113891693218817197
23402655 69 18060416881452921461
23557571 272 17676779733928036337
3060560 45 16630522938410092421
3286 77 18043246851463892894
4047638 21 18334581230866818249
449060 62 18272375282219899281
81539 233 18409448115520551676

> <PUBCHEM_SHAPE_MULTIPOLES>
252.9
6.03
1.66
1.17
7.35
0.07
-0.14
-2.51
-0.98
-1.92
0.11
0.05
0.17
0.09

> <PUBCHEM_SHAPE_SELFOVERLAP>
507.217

> <PUBCHEM_SHAPE_VOLUME>
149.2

> <PUBCHEM_COORDINATE_TYPE>
2
5
10