129856250
  -OEChem-05042113263D

 48 49  0     1  0  0  0  0  0999 V2000
   -1.7045    1.7669    0.0554 O   0  0  0  0  0  0  0  0  0  0  0  0
    1.2109    1.0584   -1.5710 O   0  0  0  0  0  0  0  0  0  0  0  0
    0.2385    3.5291    0.9657 O   0  0  0  0  0  0  0  0  0  0  0  0
    3.3002    2.7982   -0.6334 O   0  0  0  0  0  0  0  0  0  0  0  0
   -3.6143    1.8062   -1.2361 O   0  0  0  0  0  0  0  0  0  0  0  0
    4.1504    0.2176   -0.6632 O   0  0  0  0  0  0  0  0  0  0  0  0
    4.3087   -1.2914    1.5277 O   0  0  0  0  0  0  0  0  0  0  0  0
   -0.1285   -2.1156    1.7803 N   0  0  0  0  0  0  0  0  0  0  0  0
   -4.9602    0.7680    0.9405 N   0  0  2  0  0  0  0  0  0  0  0  0
    1.2027    1.6861   -0.2922 C   0  0  2  0  0  0  0  0  0  0  0  0
    0.3416    2.9621   -0.3400 C   0  0  1  0  0  0  0  0  0  0  0  0
   -3.3508   -0.9956    0.3886 C   0  0  0  0  0  0  0  0  0  0  0  0
   -3.5333    0.4711    0.8020 C   0  0  1  0  0  0  0  0  0  0  0  0
   -1.9695   -1.5285    0.6879 C   0  0  0  0  0  0  0  0  0  0  0  0
    2.6377    1.8758    0.2228 C   0  0  1  0  0  0  0  0  0  0  0  0
   -1.0736    2.6749   -0.8422 C   0  0  0  0  0  0  0  0  0  0  0  0
   -1.0534   -2.0820   -0.2497 C   0  0  0  0  0  0  0  0  0  0  0  0
    0.0933   -2.4423    0.4613 C   0  0  0  0  0  0  0  0  0  0  0  0
   -1.3724   -1.5627    1.9270 C   0  0  0  0  0  0  0  0  0  0  0  0
   -2.9883    1.4098   -0.2611 C   0  0  0  0  0  0  0  0  0  0  0  0
    3.4828    0.6052    0.2969 C   0  0  0  0  0  0  0  0  0  0  0  0
   -1.0897   -2.3120   -1.6393 C   0  0  0  0  0  0  0  0  0  0  0  0
    1.2098   -3.0233   -0.1503 C   0  0  0  0  0  0  0  0  0  0  0  0
    0.0198   -2.8925   -2.2647 C   0  0  0  0  0  0  0  0  0  0  0  0
    3.4912   -0.1419    1.6169 C   0  0  0  0  0  0  0  0  0  0  0  0
    1.1509   -3.2418   -1.5296 C   0  0  0  0  0  0  0  0  0  0  0  0
    0.7218    0.9774    0.3948 H   0  0  0  0  0  0  0  0  0  0  0  0
    0.8061    3.7003   -1.0038 H   0  0  0  0  0  0  0  0  0  0  0  0
   -3.5856   -1.1252   -0.6751 H   0  0  0  0  0  0  0  0  0  0  0  0
   -4.0560   -1.6331    0.9403 H   0  0  0  0  0  0  0  0  0  0  0  0
   -3.0571    0.6955    1.7631 H   0  0  0  0  0  0  0  0  0  0  0  0
    2.6279    2.3289    1.2197 H   0  0  0  0  0  0  0  0  0  0  0  0
   -1.6522    3.6065   -0.8549 H   0  0  0  0  0  0  0  0  0  0  0  0
   -1.0550    2.2531   -1.8533 H   0  0  0  0  0  0  0  0  0  0  0  0
   -1.7186   -1.2457    2.9009 H   0  0  0  0  0  0  0  0  0  0  0  0
    0.5323   -2.2622    2.5307 H   0  0  0  0  0  0  0  0  0  0  0  0
   -1.9615   -2.0453   -2.2298 H   0  0  0  0  0  0  0  0  0  0  0  0
   -5.0796    1.7231    1.2769 H   1  0  0  0  0  0  0  0  0  0  0  0
   -5.3674    0.1650    1.6545 H   0  0  0  0  0  0  0  0  0  0  0  0
    2.0912   -3.2944    0.4211 H   0  0  0  0  0  0  0  0  0  0  0  0
    1.6257    0.1847   -1.4728 H   0  0  0  0  0  0  0  0  0  0  0  0
   -0.2817    4.3473    0.8906 H   0  0  0  0  0  0  0  0  0  0  0  0
   -0.0022   -3.0713   -3.3365 H   0  0  0  0  0  0  0  0  0  0  0  0
    3.2564    2.4464   -1.5392 H   0  0  0  0  0  0  0  0  0  0  0  0
    3.8877    0.5147    2.3960 H   0  0  0  0  0  0  0  0  0  0  0  0
    2.4703   -0.4467    1.8596 H   0  0  0  0  0  0  0  0  0  0  0  0
    2.0019   -3.6905   -2.0356 H   0  0  0  0  0  0  0  0  0  0  0  0
    4.2428   -1.7570    2.3788 H   0  0  0  0  0  0  0  0  0  0  0  0
  1 16  1  0  0  0  0
  1 20  1  0  0  0  0
  2 10  1  0  0  0  0
  2 41  1  0  0  0  0
  3 11  1  0  0  0  0
  3 42  1  0  0  0  0
  4 15  1  0  0  0  0
  4 44  1  0  0  0  0
  5 20  2  0  0  0  0
  6 21  2  0  0  0  0
  7 25  1  0  0  0  0
  7 48  1  0  0  0  0
  8 18  1  0  0  0  0
  8 19  1  0  0  0  0
  8 36  1  0  0  0  0
  9 13  1  0  0  0  0
  9 38  1  0  0  0  0
  9 39  1  0  0  0  0
 10 11  1  0  0  0  0
 10 15  1  0  0  0  0
 10 27  1  0  0  0  0
 11 16  1  0  0  0  0
 11 28  1  0  0  0  0
 12 13  1  0  0  0  0
 12 14  1  0  0  0  0
 12 29  1  0  0  0  0
 12 30  1  0  0  0  0
 13 20  1  0  0  0  0
 13 31  1  0  0  0  0
 14 17  1  0  0  0  0
 14 19  2  0  0  0  0
 15 21  1  0  0  0  0
 15 32  1  0  0  0  0
 16 33  1  0  0  0  0
 16 34  1  0  0  0  0
 17 18  1  0  0  0  0
 17 22  2  0  0  0  0
 18 23  2  0  0  0  0
 19 35  1  0  0  0  0
 21 25  1  0  0  0  0
 22 24  1  0  0  0  0
 22 37  1  0  0  0  0
 23 26  1  0  0  0  0
 23 40  1  0  0  0  0
 24 26  2  0  0  0  0
 24 43  1  0  0  0  0
 25 45  1  0  0  0  0
 25 46  1  0  0  0  0
 26 47  1  0  0  0  0
M  ISO  1  38   2
M  END
> <PUBCHEM_COMPOUND_CID>
129856250

> <PUBCHEM_CONFORMER_RMSD>
1.4

> <PUBCHEM_CONFORMER_DIVERSEORDER>
1
102
10
62
6
34
32
93
82
115
98
58
101
25
65
60
15
48
123
85
50
39
12
67
110
118
68
71
61
11
41
3
117
69
37
54
56
23
78
20
46
66
45
5
103
70
72
99
80
47
79
52
87
59
42
105
40
7
21
113
9
31
28
122
18
2
111
36
107
91
100
16
75
86
74
49
55
88
22
13
106
64
51
112
90
95
63
26
73
89
27
44
108
53
119
4
121
24
92
83
57
94
8
104
116
35
77
109
30
120
96
43
38
81
17
114
84
29
76
97
19
14
33

> <PUBCHEM_MMFF94_PARTIAL_CHARGES>
37
1 -0.43
10 0.28
11 0.28
12 0.18
13 0.33
14 -0.18
15 0.34
16 0.28
18 -0.15
19 -0.3
2 -0.68
20 0.66
21 0.45
22 -0.15
23 -0.15
24 -0.15
25 0.34
26 -0.15
3 -0.68
35 0.15
36 0.27
37 0.15
38 0.36
39 0.36
4 -0.68
40 0.15
41 0.4
42 0.4
43 0.15
44 0.4
47 0.15
48 0.4
5 -0.57
6 -0.57
7 -0.68
8 0.03
9 -0.99

> <PUBCHEM_EFFECTIVE_ROTOR_COUNT>
10

> <PUBCHEM_PHARMACOPHORE_FEATURES>
16
1 2 acceptor
1 2 donor
1 3 acceptor
1 3 donor
1 4 acceptor
1 4 donor
1 5 acceptor
1 6 acceptor
1 7 acceptor
1 7 donor
1 8 cation
1 8 donor
1 9 cation
1 9 donor
5 8 14 17 18 19 rings
6 17 18 22 23 24 26 rings

> <PUBCHEM_HEAVY_ATOM_COUNT>
26

> <PUBCHEM_ATOM_DEF_STEREO_COUNT>
4

> <PUBCHEM_ATOM_UDEF_STEREO_COUNT>
0

> <PUBCHEM_BOND_DEF_STEREO_COUNT>
0

> <PUBCHEM_BOND_UDEF_STEREO_COUNT>
0

> <PUBCHEM_ISOTOPIC_ATOM_COUNT>
1

> <PUBCHEM_COMPONENT_COUNT>
1

> <PUBCHEM_CACTVS_TAUTO_COUNT>
110

> <PUBCHEM_CONFORMER_ID>
07BD72FA00000001

> <PUBCHEM_MMFF94_ENERGY>
37.4981

> <PUBCHEM_FEATURE_SELFOVERLAP>
81.312

> <PUBCHEM_SHAPE_FINGERPRINT>
10675989 125 14742107745388220807
10759866 29 17822866371995840980
11014199 57 16899342828843632022
12035759 4 18056176181195359631
12156800 1 13995150998572644680
12422481 6 18267298720932950771
12539773 59 17192945340818991555
12553582 1 17688588681730548492
13122387 1 18410009935871343188
13140716 1 18410008866450854056
13402501 40 18267594515699903894
15006816 218 18338520742131853813
15403338 16 17387393671754528203
20905425 154 18120092784206992323
21197605 99 18337681931431061123
23728640 28 17909557486182686435
238918 7 18127115395603260890
3298306 158 18336257951797935141
445580 8 18340195328289637891
6287921 2 17771910424523731111
6438718 38 18126285474349886998
6438754 60 16975596133014539959
9862522 239 18338497677967440334

> <PUBCHEM_SHAPE_MULTIPOLES>
484.02
6.62
4.79
1.77
0.68
0.05
-0.06
2.94
2.06
0.7
-1.59
0.16
-1.24
-0.01

> <PUBCHEM_SHAPE_SELFOVERLAP>
1010.919

> <PUBCHEM_SHAPE_VOLUME>
273.4

> <PUBCHEM_COORDINATE_TYPE>
2
5
10