130872
  -OEChem-05042113263D

 29 28  0     1  0  0  0  0  0999 V2000
   -1.6897    1.8092    0.0363 P   0  0  0  0  0  0  0  0  0  0  0  0
   -0.3665    0.9664    0.4264 O   0  0  0  0  0  0  0  0  0  0  0  0
    1.2393   -1.1133    1.5964 O   0  0  0  0  0  0  0  0  0  0  0  0
    2.4904    0.3207   -1.5442 O   0  0  0  0  0  0  0  0  0  0  0  0
    4.8085    0.3991   -0.0068 O   0  0  0  0  0  0  0  0  0  0  0  0
   -1.9214   -1.1365    1.1642 O   0  0  0  0  0  0  0  0  0  0  0  0
   -2.8491   -2.9414   -0.5628 O   0  0  0  0  0  0  0  0  0  0  0  0
   -1.4290    2.2470   -1.4985 O   0  0  0  0  0  0  0  0  0  0  0  0
   -1.4886    3.1887    0.8558 O   0  0  0  0  0  0  0  0  0  0  0  0
   -2.9902    1.1048    0.2906 O   0  0  0  0  0  0  0  0  0  0  0  0
    1.2343   -0.8060    0.2054 C   0  0  1  0  0  0  0  0  0  0  0  0
   -0.1435   -0.2787   -0.2237 C   0  0  1  0  0  0  0  0  0  0  0  0
    2.4279    0.1056   -0.1348 C   0  0  1  0  0  0  0  0  0  0  0  0
    3.7566   -0.5080    0.3078 C   0  0  0  0  0  0  0  0  0  0  0  0
   -1.3248   -1.1960    0.0880 C   0  0  0  0  0  0  0  0  0  0  0  0
   -1.7543   -2.1617   -0.9999 C   0  0  0  0  0  0  0  0  0  0  0  0
    1.3693   -1.7610   -0.3211 H   0  0  0  0  0  0  0  0  0  0  0  0
   -0.1418   -0.0916   -1.3037 H   0  0  0  0  0  0  0  0  0  0  0  0
    2.3145    1.0862    0.3410 H   0  0  0  0  0  0  0  0  0  0  0  0
    3.7840   -0.6863    1.3862 H   0  0  0  0  0  0  0  0  0  0  0  0
    3.9547   -1.4451   -0.2229 H   0  0  0  0  0  0  0  0  0  0  0  0
    1.9368   -1.7713    1.7554 H   0  0  0  0  0  0  0  0  0  0  0  0
   -2.0647   -1.5918   -1.8796 H   0  0  0  0  0  0  0  0  0  0  0  0
   -0.9226   -2.8220   -1.2589 H   0  0  0  0  0  0  0  0  0  0  0  0
    2.5796   -0.5465   -1.9753 H   0  0  0  0  0  0  0  0  0  0  0  0
    5.6391   -0.0177    0.2794 H   0  0  0  0  0  0  0  0  0  0  0  0
   -2.5359   -3.5005    0.1687 H   0  0  0  0  0  0  0  0  0  0  0  0
   -2.1372    2.7220   -1.9832 H   0  0  0  0  0  0  0  0  0  0  0  0
   -2.2147    3.8482    0.8601 H   0  0  0  0  0  0  0  0  0  0  0  0
  1  2  1  0  0  0  0
  1  8  1  0  0  0  0
  1  9  1  0  0  0  0
  1 10  2  0  0  0  0
  2 12  1  0  0  0  0
  3 11  1  0  0  0  0
  3 22  1  0  0  0  0
  4 13  1  0  0  0  0
  4 25  1  0  0  0  0
  5 14  1  0  0  0  0
  5 26  1  0  0  0  0
  6 15  2  0  0  0  0
  7 16  1  0  0  0  0
  7 27  1  0  0  0  0
  8 28  1  0  0  0  0
  9 29  1  0  0  0  0
 11 12  1  0  0  0  0
 11 13  1  0  0  0  0
 11 17  1  0  0  0  0
 12 15  1  0  0  0  0
 12 18  1  0  0  0  0
 13 14  1  0  0  0  0
 13 19  1  0  0  0  0
 14 20  1  0  0  0  0
 14 21  1  0  0  0  0
 15 16  1  0  0  0  0
 16 23  1  0  0  0  0
 16 24  1  0  0  0  0
M  END
> <PUBCHEM_COMPOUND_CID>
130872

> <PUBCHEM_CONFORMER_RMSD>
0.8

> <PUBCHEM_CONFORMER_DIVERSEORDER>
1
33
40
36
43
46
34
32
26
31
45
3
24
5
16
37
44
19
27
17
38
42
28
11
10
8
7
30
35
12
15
22
23
39
14
25
41
6
20
18
29
9
2
21
4
13

> <PUBCHEM_MMFF94_PARTIAL_CHARGES>
22
1 1.51
10 -0.7
11 0.28
12 0.34
13 0.28
14 0.28
15 0.45
16 0.34
2 -0.55
22 0.4
25 0.4
26 0.4
27 0.4
28 0.5
29 0.5
3 -0.68
4 -0.68
5 -0.68
6 -0.57
7 -0.68
8 -0.77
9 -0.77

> <PUBCHEM_EFFECTIVE_ROTOR_COUNT>
7

> <PUBCHEM_PHARMACOPHORE_FEATURES>
13
1 10 acceptor
1 3 acceptor
1 3 donor
1 4 acceptor
1 4 donor
1 5 acceptor
1 5 donor
1 6 acceptor
1 7 acceptor
1 7 donor
1 8 acceptor
1 9 acceptor
4 1 8 9 10 anion

> <PUBCHEM_HEAVY_ATOM_COUNT>
16

> <PUBCHEM_ATOM_DEF_STEREO_COUNT>
3

> <PUBCHEM_ATOM_UDEF_STEREO_COUNT>
0

> <PUBCHEM_BOND_DEF_STEREO_COUNT>
0

> <PUBCHEM_BOND_UDEF_STEREO_COUNT>
0

> <PUBCHEM_ISOTOPIC_ATOM_COUNT>
0

> <PUBCHEM_COMPONENT_COUNT>
1

> <PUBCHEM_CACTVS_TAUTO_COUNT>
4

> <PUBCHEM_CONFORMER_ID>
0001FF3800000001

> <PUBCHEM_MMFF94_ENERGY>
-4.7616

> <PUBCHEM_FEATURE_SELFOVERLAP>
66.041

> <PUBCHEM_SHAPE_FINGERPRINT>
1 1 17547008529223190607
10989021 7 18054506086728964627
12138202 97 18269547260882236574
13538477 17 18335408041687767466
14817 1 8599584121041855461
15490181 8 17763178038745896683
15669948 3 18410568470677453698
15775835 57 18189056387021636872
15906896 17 18334862667146839827
16945 1 18270698505364588945
1741750 31 18197216953848951104
18534176 82 17989481897059993028
19837323 101 18199475367621978689
19868273 325 18339359781178297335
20525323 117 18334858324818741850
20645477 56 18341898450727107456
20671657 53 17981883352579198807
20711985 344 18341598339644920731
20871998 184 18340215119778564515
21041028 32 18120953951452452979
21339142 126 18411985775309208339
21426921 1 18413671318598217438
21524375 3 18046630005740074145
22112679 90 18126020479300035947
23402539 116 18336823208127526182
23419403 2 17272544373859026883
23526113 38 17059775507888369886
23557571 272 18202289147185256422
23559900 14 18058447609363073214
23598294 1 18339630209362265387
2748010 2 18055614351658384473
58051976 100 18341614781064748550
6333449 129 18342737399146610625
7364860 26 17044860417851227273
81228 2 18409737278457054227

> <PUBCHEM_SHAPE_MULTIPOLES>
280.3
5.69
2.88
1.17
7.1
0.57
-0.11
-0.19
-0.24
-3.88
-0.25
-0.02
0.04
-0.56

> <PUBCHEM_SHAPE_SELFOVERLAP>
529.302

> <PUBCHEM_SHAPE_VOLUME>
173.1

> <PUBCHEM_COORDINATE_TYPE>
2
5
10