132278867
  -OEChem-05042113263D

 35 34  0     1  0  0  0  0  0999 V2000
    5.2335   -0.6670   -0.0794 S   0  0  0  0  0  0  0  0  0  0  0  0
   -3.3173    1.0692   -1.6529 O   0  0  0  0  0  0  0  0  0  0  0  0
   -3.0875    1.7834    0.9661 O   0  0  0  0  0  0  0  0  0  0  0  0
   -5.0376   -0.1032    0.2632 O   0  0  0  0  0  0  0  0  0  0  0  0
   -0.6440    2.5520    0.3053 O   0  0  0  0  0  0  0  0  0  0  0  0
   -4.6723   -3.0984    0.3157 O   0  0  0  0  0  0  0  0  0  0  0  0
    6.4814    0.2575    0.4194 O   0  0  0  0  0  0  0  0  0  0  0  0
    5.2868   -0.7823   -1.5253 O   0  0  0  0  0  0  0  0  0  0  0  0
    5.1522   -1.8392    0.7732 O   0  0  0  0  0  0  0  0  0  0  0  0
    1.5195    0.8579    0.2385 N   0  0  0  0  0  0  0  0  0  0  0  0
   -2.8500    0.0665   -0.7407 C   0  0  1  0  0  0  0  0  0  0  0  0
   -2.2367    0.7525    0.4878 C   0  0  1  0  0  0  0  0  0  0  0  0
   -4.0351   -0.8644   -0.4210 C   0  0  1  0  0  0  0  0  0  0  0  0
   -0.8550    1.3429    0.2032 C   0  0  0  0  0  0  0  0  0  0  0  0
    0.2261    0.3593   -0.2067 C   0  0  0  0  0  0  0  0  0  0  0  0
   -3.6885   -2.0786    0.4397 C   0  0  0  0  0  0  0  0  0  0  0  0
    2.5899   -0.0531   -0.1446 C   0  0  0  0  0  0  0  0  0  0  0  0
    3.9346    0.4453    0.3585 C   0  0  0  0  0  0  0  0  0  0  0  0
   -2.0988   -0.5256   -1.2748 H   0  0  0  0  0  0  0  0  0  0  0  0
   -2.0975    0.0401    1.3075 H   0  0  0  0  0  0  0  0  0  0  0  0
   -4.4977   -1.1991   -1.3576 H   0  0  0  0  0  0  0  0  0  0  0  0
    0.1917    0.2588   -1.2966 H   0  0  0  0  0  0  0  0  0  0  0  0
    0.0148   -0.6107    0.2564 H   0  0  0  0  0  0  0  0  0  0  0  0
   -3.6240   -1.8078    1.4985 H   0  0  0  0  0  0  0  0  0  0  0  0
   -2.7347   -2.5106    0.1202 H   0  0  0  0  0  0  0  0  0  0  0  0
    2.6212   -0.1486   -1.2367 H   0  0  0  0  0  0  0  0  0  0  0  0
    2.3991   -1.0536    0.2633 H   0  0  0  0  0  0  0  0  0  0  0  0
    1.5132    0.9651    1.2529 H   0  0  0  0  0  0  0  0  0  0  0  0
    3.9409    0.5450    1.4491 H   0  0  0  0  0  0  0  0  0  0  0  0
    4.1721    1.4173   -0.0876 H   0  0  0  0  0  0  0  0  0  0  0  0
   -2.5502    1.6062   -1.9150 H   0  0  0  0  0  0  0  0  0  0  0  0
   -3.2677    2.3871    0.2253 H   0  0  0  0  0  0  0  0  0  0  0  0
   -5.2556    0.6608   -0.2977 H   0  0  0  0  0  0  0  0  0  0  0  0
   -4.3894   -3.8386    0.8794 H   0  0  0  0  0  0  0  0  0  0  0  0
    6.5702    0.3591    1.3962 H   0  0  0  0  0  0  0  0  0  0  0  0
  1  7  1  0  0  0  0
  1  8  2  0  0  0  0
  1  9  2  0  0  0  0
  1 18  1  0  0  0  0
  2 11  1  0  0  0  0
  2 31  1  0  0  0  0
  3 12  1  0  0  0  0
  3 32  1  0  0  0  0
  4 13  1  0  0  0  0
  4 33  1  0  0  0  0
  5 14  2  0  0  0  0
  6 16  1  0  0  0  0
  6 34  1  0  0  0  0
  7 35  1  0  0  0  0
 10 15  1  0  0  0  0
 10 17  1  0  0  0  0
 10 28  1  0  0  0  0
 11 12  1  0  0  0  0
 11 13  1  0  0  0  0
 11 19  1  0  0  0  0
 12 14  1  0  0  0  0
 12 20  1  0  0  0  0
 13 16  1  0  0  0  0
 13 21  1  0  0  0  0
 14 15  1  0  0  0  0
 15 22  1  0  0  0  0
 15 23  1  0  0  0  0
 16 24  1  0  0  0  0
 16 25  1  0  0  0  0
 17 18  1  0  0  0  0
 17 26  1  0  0  0  0
 17 27  1  0  0  0  0
 18 29  1  0  0  0  0
 18 30  1  0  0  0  0
M  END
> <PUBCHEM_COMPOUND_CID>
132278867

> <PUBCHEM_CONFORMER_RMSD>
0.8

> <PUBCHEM_CONFORMER_DIVERSEORDER>
1
80
3
48
43
107
89
11
57
130
114
33
116
35
78
6
40
106
90
111
67
85
123
112
65
129
99
60
17
16
9
53
113
45
82
110
127
132
124
133
72
41
15
50
126
42
69
102
76
73
44
93
18
136
86
52
118
47
30
56
117
26
62
75
25
100
51
87
139
81
83
58
34
122
28
137
7
119
29
8
4
141
68
63
105
46
95
24
138
14
66
27
120
61
31
84
101
77
20
5
19
70
21
79
108
49
140
71
121
74
2
23
88
104
142
135
12
64
125
22
36
109
128
59
134
103
92
98
97
13
131
54
55
39
91
10
32
115
96
38
94
37

> <PUBCHEM_MMFF94_PARTIAL_CHARGES>
24
1 1.38
10 -0.9
11 0.28
12 0.34
13 0.28
14 0.45
15 0.33
16 0.28
17 0.27
18 0.11
2 -0.68
28 0.36
3 -0.68
31 0.4
32 0.4
33 0.4
34 0.4
35 0.5
4 -0.68
5 -0.57
6 -0.68
7 -0.68
8 -0.65
9 -0.65

> <PUBCHEM_EFFECTIVE_ROTOR_COUNT>
9

> <PUBCHEM_PHARMACOPHORE_FEATURES>
15
1 10 cation
1 10 donor
1 2 acceptor
1 2 donor
1 3 acceptor
1 3 donor
1 4 acceptor
1 4 donor
1 5 acceptor
1 6 acceptor
1 6 donor
1 7 acceptor
1 8 acceptor
1 9 acceptor
4 1 7 8 9 anion

> <PUBCHEM_HEAVY_ATOM_COUNT>
18

> <PUBCHEM_ATOM_DEF_STEREO_COUNT>
3

> <PUBCHEM_ATOM_UDEF_STEREO_COUNT>
0

> <PUBCHEM_BOND_DEF_STEREO_COUNT>
0

> <PUBCHEM_BOND_UDEF_STEREO_COUNT>
0

> <PUBCHEM_ISOTOPIC_ATOM_COUNT>
0

> <PUBCHEM_COMPONENT_COUNT>
1

> <PUBCHEM_CACTVS_TAUTO_COUNT>
11

> <PUBCHEM_CONFORMER_ID>
07E26A5300000001

> <PUBCHEM_MMFF94_ENERGY>
20.1987

> <PUBCHEM_FEATURE_SELFOVERLAP>
76.218

> <PUBCHEM_SHAPE_FINGERPRINT>
10680689 15 17894914001113594973
10803635 8 18040988510615287615
11045515 52 18040432183254322772
11046707 91 18409446985796433721
11089746 13 14562529592332368908
12633257 1 15913044373693606820
12760667 363 18341049722651610751
12916754 54 18262237823761468789
13167823 11 18413106139577959474
13288520 33 18411982455267703565
13740256 8 18339080492139363409
13911882 115 17846226540231524982
14123255 352 8790892877674922898
1420 363 18273497871096853062
1420 369 18341615940399638254
14251718 22 18260266369811838140
14251732 14 18338815501880196550
14251732 16 18341328994357311728
14251740 79 18040154041403959123
17834072 33 18113621201132826524
17844677 252 18408606955066732204
17870717 6 18334013882808902807
17959699 21 9367339345581972478
18927931 339 18060421313257518389
193927 3 18272940444017745814
200 152 18113897139501313380
20621476 21 17845950562776030158
21054139 6 17967529091308926962
220451 1 18188216412120312970
23402539 116 18336263453555919948
23403322 49 18408602582573279363
23466295 7 17605852536517447827
23557571 272 17987806202532251636
23559900 14 18338788000608942681
26918003 58 18272932730515061841
27216 239 10375871892254444645
5104073 3 18131068221445873352
559249 180 18338231553594268145
7062679 117 18410014338565944194
7062679 13 18336545040033235227
7062679 6 10159695815753448306

> <PUBCHEM_SHAPE_MULTIPOLES>
322.35
14.49
2.26
0.98
16.72
0.87
0.31
7.72
0.08
-2.95
-0.52
-0.01
-0.06
0.37

> <PUBCHEM_SHAPE_SELFOVERLAP>
607.717

> <PUBCHEM_SHAPE_VOLUME>
199.3

> <PUBCHEM_COORDINATE_TYPE>
2
5
10