134811471
  -OEChem-05042113263D

 34 33  0     1  0  0  0  0  0999 V2000
   -1.2590    1.1898   -1.5577 O   0  0  0  0  0  0  0  0  0  0  0  0
   -0.2078   -2.1208   -0.4276 O   0  0  0  0  0  0  0  0  0  0  0  0
   -2.6250   -1.4415    0.6172 O   0  0  0  0  0  0  0  0  0  0  0  0
    0.5910   -0.3468    1.4813 O   0  0  0  0  0  0  0  0  0  0  0  0
   -4.5921    0.4842    0.9680 O   0  0  0  0  0  0  0  0  0  0  0  0
    1.2220    2.2649    0.5061 N   0  0  0  0  0  0  0  0  0  0  0  0
   -1.4251   -0.1346   -1.0591 C   0  0  1  0  0  0  0  0  0  0  0  0
   -0.0436   -0.7617   -0.8067 C   0  0  1  0  0  0  0  0  0  0  0  0
    1.7106    1.0475   -0.1409 C   0  0  2  0  0  0  0  0  0  0  0  0
   -2.3907   -0.1172    0.1447 C   0  0  1  0  0  0  0  0  0  0  0  0
    0.7557   -0.0622    0.2933 C   0  0  0  0  0  0  0  0  0  0  0  0
    3.1603    0.7840    0.2883 C   0  0  0  0  0  0  0  0  0  0  0  0
    3.7134   -0.5203   -0.2933 C   0  0  0  0  0  0  0  0  0  0  0  0
   -3.7512    0.5057   -0.1788 C   0  0  0  0  0  0  0  0  0  0  0  0
    5.1417   -0.7711    0.1652 C   0  0  0  0  0  0  0  0  0  0  0  0
   -1.9080   -0.7252   -1.8493 H   0  0  0  0  0  0  0  0  0  0  0  0
    0.5505   -0.7470   -1.7274 H   0  0  0  0  0  0  0  0  0  0  0  0
    1.6646    1.1744   -1.2275 H   0  0  0  0  0  0  0  0  0  0  0  0
   -1.9477    0.4501    0.9716 H   0  0  0  0  0  0  0  0  0  0  0  0
    3.7958    1.6212   -0.0278 H   0  0  0  0  0  0  0  0  0  0  0  0
    3.2220    0.7334    1.3838 H   0  0  0  0  0  0  0  0  0  0  0  0
    3.6860   -0.4780   -1.3882 H   0  0  0  0  0  0  0  0  0  0  0  0
    3.0955   -1.3709    0.0147 H   0  0  0  0  0  0  0  0  0  0  0  0
   -3.6428    1.5442   -0.5062 H   0  0  0  0  0  0  0  0  0  0  0  0
   -4.2550   -0.0664   -0.9652 H   0  0  0  0  0  0  0  0  0  0  0  0
    0.2962    2.4952    0.1462 H   0  0  0  0  0  0  0  0  0  0  0  0
    1.8243    3.0491    0.2584 H   0  0  0  0  0  0  0  0  0  0  0  0
   -0.7057    1.1374   -2.3555 H   0  0  0  0  0  0  0  0  0  0  0  0
    0.6756   -2.5268   -0.4029 H   0  0  0  0  0  0  0  0  0  0  0  0
    5.1953   -0.8531    1.2555 H   0  0  0  0  0  0  0  0  0  0  0  0
    5.8036    0.0410   -0.1518 H   0  0  0  0  0  0  0  0  0  0  0  0
    5.5192   -1.7042   -0.2645 H   0  0  0  0  0  0  0  0  0  0  0  0
   -3.2237   -1.3791    1.3810 H   0  0  0  0  0  0  0  0  0  0  0  0
   -5.4398    0.8835    0.7079 H   0  0  0  0  0  0  0  0  0  0  0  0
  1  7  1  0  0  0  0
  1 28  1  0  0  0  0
  2  8  1  0  0  0  0
  2 29  1  0  0  0  0
  3 10  1  0  0  0  0
  3 33  1  0  0  0  0
  4 11  2  0  0  0  0
  5 14  1  0  0  0  0
  5 34  1  0  0  0  0
  6  9  1  0  0  0  0
  6 26  1  0  0  0  0
  6 27  1  0  0  0  0
  7  8  1  0  0  0  0
  7 10  1  0  0  0  0
  7 16  1  0  0  0  0
  8 11  1  0  0  0  0
  8 17  1  0  0  0  0
  9 11  1  0  0  0  0
  9 12  1  0  0  0  0
  9 18  1  0  0  0  0
 10 14  1  0  0  0  0
 10 19  1  0  0  0  0
 12 13  1  0  0  0  0
 12 20  1  0  0  0  0
 12 21  1  0  0  0  0
 13 15  1  0  0  0  0
 13 22  1  0  0  0  0
 13 23  1  0  0  0  0
 14 24  1  0  0  0  0
 14 25  1  0  0  0  0
 15 30  1  0  0  0  0
 15 31  1  0  0  0  0
 15 32  1  0  0  0  0
M  END
> <PUBCHEM_COMPOUND_CID>
134811471

> <PUBCHEM_CONFORMER_RMSD>
1

> <PUBCHEM_CONFORMER_DIVERSEORDER>
1
23
48
51
34
110
86
94
20
133
116
123
17
80
102
96
109
5
36
98
2
26
83
75
27
125
88
134
85
11
81
12
79
106
58
93
137
3
37
44
70
32
30
62
67
6
7
95
135
74
112
84
61
97
101
132
118
4
130
124
55
82
35
25
15
19
33
60
73
121
40
31
46
9
72
107
47
108
52
111
10
38
42
113
119
13
29
120
43
65
91
56
115
63
28
18
64
66
89
114
122
78
103
68
45
138
143
59
142
139
77
76
8
136
90
50
14
49
140
128
71
105
21
53
41
126
104
39
99
131
24
92
69
117
16
100
127
57
87
22
141
129
54
144

> <PUBCHEM_MMFF94_PARTIAL_CHARGES>
18
1 -0.68
10 0.28
11 0.45
14 0.28
2 -0.68
26 0.36
27 0.36
28 0.4
29 0.4
3 -0.68
33 0.4
34 0.4
4 -0.57
5 -0.68
6 -0.99
7 0.28
8 0.34
9 0.33

> <PUBCHEM_EFFECTIVE_ROTOR_COUNT>
7

> <PUBCHEM_PHARMACOPHORE_FEATURES>
12
1 1 acceptor
1 1 donor
1 15 hydrophobe
1 2 acceptor
1 2 donor
1 3 acceptor
1 3 donor
1 4 acceptor
1 5 acceptor
1 5 donor
1 6 cation
1 6 donor

> <PUBCHEM_HEAVY_ATOM_COUNT>
15

> <PUBCHEM_ATOM_DEF_STEREO_COUNT>
3

> <PUBCHEM_ATOM_UDEF_STEREO_COUNT>
1

> <PUBCHEM_BOND_DEF_STEREO_COUNT>
0

> <PUBCHEM_BOND_UDEF_STEREO_COUNT>
0

> <PUBCHEM_ISOTOPIC_ATOM_COUNT>
0

> <PUBCHEM_COMPONENT_COUNT>
1

> <PUBCHEM_CACTVS_TAUTO_COUNT>
12

> <PUBCHEM_CONFORMER_ID>
08090F4F00000001

> <PUBCHEM_MMFF94_ENERGY>
17.1125

> <PUBCHEM_FEATURE_SELFOVERLAP>
60.926

> <PUBCHEM_SHAPE_FINGERPRINT>
10130415 120 18343860031137222464
10922049 32 18261112958662039675
11062470 55 12391513092029730284
11132069 177 17968088772121978301
11401426 45 15267340704078459747
12011746 2 18113610162977302709
12119455 92 18413103948870384175
12186901 62 17385715851243283342
12251169 10 18260551134496153153
124424 183 18412543214782366789
12932764 1 17677032629490564032
13675066 3 17489587874550478882
14943859 89 16845572019650507143
15775835 57 18260546757476222073
15852999 172 12103850093858878532
16945 1 17677033716064568428
17834072 14 10879995769733544962
17834072 8 17918279727316099548
17844478 74 17967246503175855788
18175812 5 18334016133297789271
18186145 218 18341322358126190140
18511873 20 17918273172979682340
19422 9 18187931753971488350
20112054 13 18059849588743972288
20279233 1 11455891394936126380
20671657 1 18193561296730304788
207724 885 18271522087082294440
21501502 16 18126281089357206606
22094290 60 17385720270986209220
23402539 116 12967121688535937041
23402655 69 9295298209710783107
23419403 2 13914336709258578300
25610 137 7925638803814573670
296302 2 13326852249379985972
3286 77 18269554004054627293
81228 2 17685196666536103755

> <PUBCHEM_SHAPE_MULTIPOLES>
274.37
7.91
1.58
1.08
2.34
0.13
-0.07
-0.45
1.39
0.29
0
-0.5
0.06
0.21

> <PUBCHEM_SHAPE_SELFOVERLAP>
520.462

> <PUBCHEM_SHAPE_VOLUME>
168.8

> <PUBCHEM_COORDINATE_TYPE>
2
5
10