136212896
  -OEChem-05042113263D

 45 46  0     1  0  0  0  0  0999 V2000
    1.6172   -0.2635   -0.7682 O   0  0  0  0  0  0  0  0  0  0  0  0
   -0.0935    0.9691    0.3094 O   0  0  0  0  0  0  0  0  0  0  0  0
   -1.0931   -0.8139   -0.8915 O   0  0  0  0  0  0  0  0  0  0  0  0
    1.5260   -0.0206    2.2334 O   0  0  0  0  0  0  0  0  0  0  0  0
    4.3672    1.0920    0.3461 O   0  0  0  0  0  0  0  0  0  0  0  0
   -2.0357    2.7324   -0.6873 O   0  0  0  0  0  0  0  0  0  0  0  0
   -4.4862    1.3597    0.0100 O   0  0  0  0  0  0  0  0  0  0  0  0
   -3.9879   -1.1212    1.3699 O   0  0  0  0  0  0  0  0  0  0  0  0
    1.3695    3.2980   -0.0849 O   0  0  0  0  0  0  0  0  0  0  0  0
    2.4724   -2.8427   -1.3587 O   0  0  0  0  0  0  0  0  0  0  0  0
   -0.6185   -3.3578   -0.0222 O   0  0  0  0  0  0  0  0  0  0  0  0
    1.2950    0.9052    0.0001 C   0  0  1  0  0  0  0  0  0  0  0  0
    2.1557    0.8116    1.2600 C   0  0  2  0  0  0  0  0  0  0  0  0
    3.4172    0.1218    0.7751 C   0  0  1  0  0  0  0  0  0  0  0  0
    2.9554   -0.6889   -0.4392 C   0  0  1  0  0  0  0  0  0  0  0  0
   -0.8925    0.5988   -0.8126 C   0  0  1  0  0  0  0  0  0  0  0  0
   -2.2343    1.3321   -0.8459 C   0  0  1  0  0  0  0  0  0  0  0  0
   -3.1796    0.8286    0.2430 C   0  0  2  0  0  0  0  0  0  0  0  0
   -3.2701   -0.6985    0.2129 C   0  0  1  0  0  0  0  0  0  0  0  0
   -1.8746   -1.3366    0.1888 C   0  0  1  0  0  0  0  0  0  0  0  0
    1.6095    2.1327   -0.8552 C   0  0  0  0  0  0  0  0  0  0  0  0
    2.9206   -2.1883   -0.1832 C   1  0  0  0  0  0  0  0  0  0  0  0
   -1.9396   -2.8499    0.0000 C   0  0  0  0  0  0  0  0  0  0  0  0
    2.3331    1.7852    1.7266 H   0  0  0  0  0  0  0  0  0  0  0  0
    3.8969   -0.4960    1.5413 H   0  0  0  0  0  0  0  0  0  0  0  0
    3.5715   -0.4878   -1.3239 H   0  0  0  0  0  0  0  0  0  0  0  0
   -0.4014    0.8639   -1.7522 H   0  0  0  0  0  0  0  0  0  0  0  0
   -2.7120    1.1765   -1.8219 H   0  0  0  0  0  0  0  0  0  0  0  0
   -2.8706    1.1918    1.2300 H   0  0  0  0  0  0  0  0  0  0  0  0
   -3.8479   -1.0161   -0.6636 H   0  0  0  0  0  0  0  0  0  0  0  0
   -1.3417   -1.1401    1.1287 H   0  0  0  0  0  0  0  0  0  0  0  0
    2.6549    2.1405   -1.1791 H   0  0  0  0  0  0  0  0  0  0  0  0
    1.0198    2.2090   -1.7712 H   0  0  0  0  0  0  0  0  0  0  0  0
    2.2200   -2.4324    0.6220 H   0  0  0  0  0  0  0  0  0  0  0  0
    3.9150   -2.5662    0.0735 H   0  0  0  0  0  0  0  0  0  0  0  0
   -2.4107   -3.1032   -0.9556 H   0  0  0  0  0  0  0  0  0  0  0  0
   -2.4905   -3.3307    0.8139 H   0  0  0  0  0  0  0  0  0  0  0  0
    2.1249   -0.0798    2.9973 H   0  0  0  0  0  0  0  0  0  0  0  0
    5.1429    0.6113    0.0098 H   0  0  0  0  0  0  0  0  0  0  0  0
   -1.4321    3.0244   -1.3915 H   0  0  0  0  0  0  0  0  0  0  0  0
   -4.7827    1.0620   -0.8669 H   0  0  0  0  0  0  0  0  0  0  0  0
   -3.4657   -0.8766    2.1530 H   0  0  0  0  0  0  0  0  0  0  0  0
    1.5946    4.0624   -0.6420 H   0  0  0  0  0  0  0  0  0  0  0  0
    2.4540   -3.7957   -1.1666 H   0  0  0  0  0  0  0  0  0  0  0  0
   -0.6825   -4.3199   -0.1472 H   0  0  0  0  0  0  0  0  0  0  0  0
  1 12  1  0  0  0  0
  1 15  1  0  0  0  0
  2 12  1  0  0  0  0
  2 16  1  0  0  0  0
  3 16  1  0  0  0  0
  3 20  1  0  0  0  0
  4 13  1  0  0  0  0
  4 38  1  0  0  0  0
  5 14  1  0  0  0  0
  5 39  1  0  0  0  0
  6 17  1  0  0  0  0
  6 40  1  0  0  0  0
  7 18  1  0  0  0  0
  7 41  1  0  0  0  0
  8 19  1  0  0  0  0
  8 42  1  0  0  0  0
  9 21  1  0  0  0  0
  9 43  1  0  0  0  0
 10 22  1  0  0  0  0
 10 44  1  0  0  0  0
 11 23  1  0  0  0  0
 11 45  1  0  0  0  0
 12 13  1  0  0  0  0
 12 21  1  0  0  0  0
 13 14  1  0  0  0  0
 13 24  1  0  0  0  0
 14 15  1  0  0  0  0
 14 25  1  0  0  0  0
 15 22  1  0  0  0  0
 15 26  1  0  0  0  0
 16 17  1  0  0  0  0
 16 27  1  0  0  0  0
 17 18  1  0  0  0  0
 17 28  1  0  0  0  0
 18 19  1  0  0  0  0
 18 29  1  0  0  0  0
 19 20  1  0  0  0  0
 19 30  1  0  0  0  0
 20 23  1  0  0  0  0
 20 31  1  0  0  0  0
 21 32  1  0  0  0  0
 21 33  1  0  0  0  0
 22 34  1  0  0  0  0
 22 35  1  0  0  0  0
 23 36  1  0  0  0  0
 23 37  1  0  0  0  0
M  ISO  1  22  13
M  END
> <PUBCHEM_COMPOUND_CID>
136212896

> <PUBCHEM_CONFORMER_RMSD>
0.8

> <PUBCHEM_CONFORMER_DIVERSEORDER>
1
73
51
34
62
40
67
64
52
39
29
63
59
48
24
56
77
11
5
36
58
65
15
76
35
13
26
37
42
72
31
33
8
12
49
28
57
27
69
20
18
23
70
75
7
6
44
4
16
17
55
53
41
10
60
50
14
46
45
74
9
47
25
71
61
66
43
22
32
54
38
2
3
68
19
30
21

> <PUBCHEM_MMFF94_PARTIAL_CHARGES>
31
1 -0.56
10 -0.68
11 -0.68
12 0.56
13 0.28
14 0.28
15 0.28
16 0.56
17 0.28
18 0.28
19 0.28
2 -0.56
20 0.28
21 0.28
22 0.28
23 0.28
3 -0.56
38 0.4
39 0.4
4 -0.68
40 0.4
41 0.4
42 0.4
43 0.4
44 0.4
45 0.4
5 -0.68
6 -0.68
7 -0.68
8 -0.68
9 -0.68

> <PUBCHEM_EFFECTIVE_ROTOR_COUNT>
7.2

> <PUBCHEM_PHARMACOPHORE_FEATURES>
21
1 1 acceptor
1 10 acceptor
1 10 donor
1 11 acceptor
1 11 donor
1 2 acceptor
1 3 acceptor
1 4 acceptor
1 4 donor
1 5 acceptor
1 5 donor
1 6 acceptor
1 6 donor
1 7 acceptor
1 7 donor
1 8 acceptor
1 8 donor
1 9 acceptor
1 9 donor
5 1 12 13 14 15 rings
6 3 16 17 18 19 20 rings

> <PUBCHEM_HEAVY_ATOM_COUNT>
23

> <PUBCHEM_ATOM_DEF_STEREO_COUNT>
9

> <PUBCHEM_ATOM_UDEF_STEREO_COUNT>
0

> <PUBCHEM_BOND_DEF_STEREO_COUNT>
0

> <PUBCHEM_BOND_UDEF_STEREO_COUNT>
0

> <PUBCHEM_ISOTOPIC_ATOM_COUNT>
1

> <PUBCHEM_COMPONENT_COUNT>
1

> <PUBCHEM_CACTVS_TAUTO_COUNT>
-1

> <PUBCHEM_CONFORMER_ID>
081E71A000000001

> <PUBCHEM_MMFF94_ENERGY>
75.299

> <PUBCHEM_FEATURE_SELFOVERLAP>
106.707

> <PUBCHEM_SHAPE_FINGERPRINT>
10366900 7 17917421090049015200
10616163 171 18194123151287457494
10922523 26 18410855434432269599
10967382 1 18338234864628892710
12251169 10 18338800134038733477
12500047 106 18342450469540322163
12553582 1 18264211476923473030
12633257 1 18270409420038165587
13140716 1 18049442839983382722
13583140 156 17274531135625513579
14178342 30 18267849744052431850
14223421 5 18192993948656096781
14866123 147 17044304064782949963
15238133 3 17130454421439668585
15375462 189 17603853490838239640
16752209 62 18261094289024474079
16945 1 18337950194201840644
17093844 170 17977378339780552028
17804303 29 18336275560962842839
19049666 15 18270678636866976732
19591789 44 18194120703388187895
20442098 301 18335414724693692843
20510252 161 18341328907925384713
20511035 2 18059850701151045262
20905425 154 17404019223748123631
21501502 16 18191586569245526260
2334 1 17689433114928679942
23419403 2 16910280285117079378
23559900 14 18341330011710497460
2748010 2 18265889159900415854
598444 67 18267589005161969519
7364860 26 18338237197081529620
74978 22 18336258045980902885
81228 2 18194668500913292619
9709674 26 18411419539785102407

> <PUBCHEM_SHAPE_MULTIPOLES>
408.77
6.83
3.37
1.19
1.48
1.06
0.38
-0.09
1.17
0.03
-0.84
-0.4
0.08
0.95

> <PUBCHEM_SHAPE_SELFOVERLAP>
842.458

> <PUBCHEM_SHAPE_VOLUME>
233.1

> <PUBCHEM_COORDINATE_TYPE>
2
5
10