138454355
  -OEChem-05042113263D

 22 21  0     1  0  0  0  0  0999 V2000
    0.0734    1.1666    1.4242 O   0  0  0  0  0  0  0  0  0  0  0  0
   -0.0730    1.1762   -1.4182 O   0  0  0  0  0  0  0  0  0  0  0  0
    2.6767    0.9486    0.7454 O   0  0  0  0  0  0  0  0  0  0  0  0
   -2.6779    0.9518   -0.7397 O   0  0  0  0  0  0  0  0  0  0  0  0
    3.8887   -1.0439   -0.5482 O   0  0  0  0  0  0  0  0  0  0  0  0
   -3.8865   -1.0443    0.5517 O   0  0  0  0  0  0  0  0  0  0  0  0
    0.4288    0.0452    0.6344 C   0  0  1  0  0  0  0  0  0  0  0  0
   -0.4294    0.0493   -0.6365 C   0  0  1  0  0  0  0  0  0  0  0  0
    1.9413    0.0296    0.3837 C   0  0  0  0  0  0  0  0  0  0  0  0
   -1.9420    0.0302   -0.3859 C   0  0  0  0  0  0  0  0  0  0  0  0
    2.4881   -1.1520   -0.3969 C   0  0  1  0  0  0  0  0  0  0  0  0
   -2.4880   -1.1574    0.3860 C   0  0  0  0  0  0  0  0  0  0  0  0
    0.2102   -0.8418    1.2379 H   0  0  0  0  0  0  0  0  0  0  0  0
   -0.2098   -0.8335   -1.2460 H   0  0  0  0  0  0  0  0  0  0  0  0
    2.0390   -1.1737   -1.3923 H   1  0  0  0  0  0  0  0  0  0  0  0
    2.2586   -2.0729    0.1461 H   0  0  0  0  0  0  0  0  0  0  0  0
   -2.2679   -2.0730   -0.1697 H   0  0  0  0  0  0  0  0  0  0  0  0
   -2.0305   -1.1933    1.3770 H   0  0  0  0  0  0  0  0  0  0  0  0
    0.3338    1.9709    0.9450 H   0  0  0  0  0  0  0  0  0  0  0  0
   -0.3351    1.9771   -0.9342 H   0  0  0  0  0  0  0  0  0  0  0  0
    4.1872   -1.8321   -1.0330 H   0  0  0  0  0  0  0  0  0  0  0  0
   -4.1846   -1.8373    1.0290 H   0  0  0  0  0  0  0  0  0  0  0  0
  1  7  1  0  0  0  0
  1 19  1  0  0  0  0
  2  8  1  0  0  0  0
  2 20  1  0  0  0  0
  3  9  2  0  0  0  0
  4 10  2  0  0  0  0
  5 11  1  0  0  0  0
  5 21  1  0  0  0  0
  6 12  1  0  0  0  0
  6 22  1  0  0  0  0
  7  8  1  0  0  0  0
  7  9  1  0  0  0  0
  7 13  1  0  0  0  0
  8 10  1  0  0  0  0
  8 14  1  0  0  0  0
  9 11  1  0  0  0  0
 10 12  1  0  0  0  0
 11 15  1  0  0  0  0
 11 16  1  0  0  0  0
 12 17  1  0  0  0  0
 12 18  1  0  0  0  0
M  ISO  1  15   2
M  END
> <PUBCHEM_COMPOUND_CID>
138454355

> <PUBCHEM_CONFORMER_RMSD>
0.6

> <PUBCHEM_CONFORMER_DIVERSEORDER>
1
204
104
228
201
143
75
4
148
12
184
21
29
23
3
17
85
39
181
115
209
188
98
187
102
145
91
93
6
123
206
30
174
54
152
150
41
125
223
28
202
2
197
169
180
61
89
108
178
100
96
20
230
220
121
14
233
71
229
153
10
137
22
62
97
73
173
192
42
226
63
65
24
166
33
76
118
46
15
19
207
225
154
5
203
109
45
86
55
176
146
147
114
8
57
92
56
171
175
34
156
27
151
48
53
36
32
170
78
132
82
84
160
99
186
205
158
9
11
74
50
163
231
139
200
126
129
47
140
198
81
94
130
182
43
189
144
40
164
106
95
157
215
117
25
49
134
211
31
72
135
162
90
172
13
124
7
116
18
199
67
191
66
183
159
64
195
59
107
70
216
35
227
101
212
177
217
127
103
232
193
51
105
83
120
219
185
38
165
179
196
52
68
138
16
194
119
111
88
167
208
79
218
122
26
80
155
87
213
133
141
214
60
113
58
77
224
69
128
149
190
168
161
112
142
222
37
136
44
210
110
221
131

> <PUBCHEM_MMFF94_PARTIAL_CHARGES>
16
1 -0.68
10 0.45
11 0.34
12 0.34
19 0.4
2 -0.68
20 0.4
21 0.4
22 0.4
3 -0.57
4 -0.57
5 -0.68
6 -0.68
7 0.34
8 0.34
9 0.45

> <PUBCHEM_EFFECTIVE_ROTOR_COUNT>
5

> <PUBCHEM_PHARMACOPHORE_FEATURES>
10
1 1 acceptor
1 1 donor
1 2 acceptor
1 2 donor
1 3 acceptor
1 4 acceptor
1 5 acceptor
1 5 donor
1 6 acceptor
1 6 donor

> <PUBCHEM_HEAVY_ATOM_COUNT>
12

> <PUBCHEM_ATOM_DEF_STEREO_COUNT>
2

> <PUBCHEM_ATOM_UDEF_STEREO_COUNT>
1

> <PUBCHEM_BOND_DEF_STEREO_COUNT>
0

> <PUBCHEM_BOND_UDEF_STEREO_COUNT>
0

> <PUBCHEM_ISOTOPIC_ATOM_COUNT>
1

> <PUBCHEM_COMPONENT_COUNT>
1

> <PUBCHEM_CACTVS_TAUTO_COUNT>
-1

> <PUBCHEM_CONFORMER_ID>
0840A55300000001

> <PUBCHEM_MMFF94_ENERGY>
7.0709

> <PUBCHEM_FEATURE_SELFOVERLAP>
50.786

> <PUBCHEM_SHAPE_FINGERPRINT>
10219947 1 16989128668725310693
10857977 72 17968362546217006929
124424 183 17775004549144416353
12897270 3 17967527939624318238
12932764 1 18410566288570329538
14128692 85 17894920671403144399
15219456 202 18413101775490208144
17844478 74 18411697690340645973
20201158 50 18272086042016222518
20281407 28 18334579070419381027
20645477 70 17917418796483887967
20711983 138 18199742557621845994
20715346 28 18410845586167231445
207724 885 16988838410482483507
20871999 31 17603585214448834935
21293036 1 14923950071576566883
228727 97 16008746887914162293
23402539 116 16950278473778525478
29004967 10 18130779088188895960
305870 269 12679191474473451829
3248919 1 18338781377711031360
449060 23 17967812803515088547
528716 315 17095246916815248051

> <PUBCHEM_SHAPE_MULTIPOLES>
211.74
5.63
1.29
1.1
0
0.05
0
2.33
0
0
0
0
-0.34
0.82

> <PUBCHEM_SHAPE_SELFOVERLAP>
406.229

> <PUBCHEM_SHAPE_VOLUME>
127.8

> <PUBCHEM_COORDINATE_TYPE>
2
5
10