15764505
  -OEChem-05042113263D

 35 35  0     1  0  0  0  0  0999 V2000
   -2.2078   -2.6317    0.0095 P   0  0  0  0  0  0  0  0  0  0  0  0
    3.9801   -0.7061   -0.0265 P   0  0  0  0  0  0  0  0  0  0  0  0
   -0.2313   -0.0250   -0.2724 O   0  0  0  0  0  0  0  0  0  0  0  0
    0.0666    2.6562   -1.3607 O   0  0  0  0  0  0  0  0  0  0  0  0
    0.4323    0.8763    1.8200 O   0  0  0  0  0  0  0  0  0  0  0  0
   -2.2052    3.6298   -0.1147 O   0  0  0  0  0  0  0  0  0  0  0  0
   -2.2282   -1.1682   -0.6698 O   0  0  0  0  0  0  0  0  0  0  0  0
   -3.6765    1.1440    0.2241 O   0  0  0  0  0  0  0  0  0  0  0  0
    2.4425   -0.3403    0.3306 O   0  0  0  0  0  0  0  0  0  0  0  0
   -0.6420   -3.0361    0.0105 O   0  0  0  0  0  0  0  0  0  0  0  0
   -2.8327   -3.5671   -1.1522 O   0  0  0  0  0  0  0  0  0  0  0  0
   -2.8962   -2.7279    1.3395 O   0  0  0  0  0  0  0  0  0  0  0  0
    4.8213    0.5280    0.5935 O   0  0  0  0  0  0  0  0  0  0  0  0
    4.0553   -0.4440   -1.6205 O   0  0  0  0  0  0  0  0  0  0  0  0
    4.4242   -2.0706    0.4131 O   0  0  0  0  0  0  0  0  0  0  0  0
   -0.1299    2.3873    0.0291 C   0  0  2  0  0  0  0  0  0  0  0  0
    0.4825    1.0242    0.3984 C   0  0  2  0  0  0  0  0  0  0  0  0
   -1.6282    2.4102    0.3453 C   0  0  2  0  0  0  0  0  0  0  0  0
   -2.3471    1.2205   -0.2895 C   0  0  1  0  0  0  0  0  0  0  0  0
   -1.6230   -0.0869    0.0416 C   0  0  2  0  0  0  0  0  0  0  0  0
    1.9432    0.9274   -0.0489 C   0  0  0  0  0  0  0  0  0  0  0  0
    0.3674    3.1928    0.5834 H   0  0  0  0  0  0  0  0  0  0  0  0
   -1.8043    2.3970    1.4265 H   0  0  0  0  0  0  0  0  0  0  0  0
   -2.4292    1.3493   -1.3754 H   0  0  0  0  0  0  0  0  0  0  0  0
   -1.7348   -0.2985    1.1124 H   0  0  0  0  0  0  0  0  0  0  0  0
    2.5414    1.7056    0.4358 H   0  0  0  0  0  0  0  0  0  0  0  0
    2.0267    1.0230   -1.1358 H   0  0  0  0  0  0  0  0  0  0  0  0
   -0.3588    3.5087   -1.5548 H   0  0  0  0  0  0  0  0  0  0  0  0
   -0.3317    1.3447    2.1861 H   0  0  0  0  0  0  0  0  0  0  0  0
   -1.7266    4.3601    0.3135 H   0  0  0  0  0  0  0  0  0  0  0  0
   -4.1114    1.9922    0.0312 H   0  0  0  0  0  0  0  0  0  0  0  0
   -0.3693   -3.8770    0.4355 H   0  0  0  0  0  0  0  0  0  0  0  0
   -3.0172   -4.5099   -0.9543 H   0  0  0  0  0  0  0  0  0  0  0  0
    5.8012    0.4968    0.5637 H   0  0  0  0  0  0  0  0  0  0  0  0
    4.8750   -0.6841   -2.1027 H   0  0  0  0  0  0  0  0  0  0  0  0
  1  7  1  0  0  0  0
  1 10  1  0  0  0  0
  1 11  1  0  0  0  0
  1 12  2  0  0  0  0
  2  9  1  0  0  0  0
  2 13  1  0  0  0  0
  2 14  1  0  0  0  0
  2 15  2  0  0  0  0
  3 17  1  0  0  0  0
  3 20  1  0  0  0  0
  4 16  1  0  0  0  0
  4 28  1  0  0  0  0
  5 17  1  0  0  0  0
  5 29  1  0  0  0  0
  6 18  1  0  0  0  0
  6 30  1  0  0  0  0
  7 20  1  0  0  0  0
  8 19  1  0  0  0  0
  8 31  1  0  0  0  0
  9 21  1  0  0  0  0
 10 32  1  0  0  0  0
 11 33  1  0  0  0  0
 13 34  1  0  0  0  0
 14 35  1  0  0  0  0
 16 17  1  0  0  0  0
 16 18  1  0  0  0  0
 16 22  1  0  0  0  0
 17 21  1  0  0  0  0
 18 19  1  0  0  0  0
 18 23  1  0  0  0  0
 19 20  1  0  0  0  0
 19 24  1  0  0  0  0
 20 25  1  0  0  0  0
 21 26  1  0  0  0  0
 21 27  1  0  0  0  0
M  END
> <PUBCHEM_COMPOUND_CID>
15764505

> <PUBCHEM_CONFORMER_RMSD>
0.8

> <PUBCHEM_CONFORMER_DIVERSEORDER>
1
9
8
7
4
3
5
2
6

> <PUBCHEM_MMFF94_PARTIAL_CHARGES>
29
1 1.51
10 -0.77
11 -0.77
12 -0.7
13 -0.77
14 -0.77
15 -0.7
16 0.28
17 0.56
18 0.28
19 0.28
2 1.51
20 0.56
21 0.28
28 0.4
29 0.4
3 -0.56
30 0.4
31 0.4
32 0.5
33 0.5
34 0.5
35 0.5
4 -0.68
5 -0.68
6 -0.68
7 -0.55
8 -0.68
9 -0.55

> <PUBCHEM_EFFECTIVE_ROTOR_COUNT>
6.2

> <PUBCHEM_PHARMACOPHORE_FEATURES>
18
1 10 acceptor
1 11 acceptor
1 12 acceptor
1 13 acceptor
1 14 acceptor
1 15 acceptor
1 3 acceptor
1 4 acceptor
1 4 donor
1 5 acceptor
1 5 donor
1 6 acceptor
1 6 donor
1 8 acceptor
1 8 donor
4 1 10 11 12 anion
4 2 13 14 15 anion
6 3 16 17 18 19 20 rings

> <PUBCHEM_HEAVY_ATOM_COUNT>
21

> <PUBCHEM_ATOM_DEF_STEREO_COUNT>
5

> <PUBCHEM_ATOM_UDEF_STEREO_COUNT>
0

> <PUBCHEM_BOND_DEF_STEREO_COUNT>
0

> <PUBCHEM_BOND_UDEF_STEREO_COUNT>
0

> <PUBCHEM_ISOTOPIC_ATOM_COUNT>
0

> <PUBCHEM_COMPONENT_COUNT>
1

> <PUBCHEM_CACTVS_TAUTO_COUNT>
1

> <PUBCHEM_CONFORMER_ID>
00F08C1900000001

> <PUBCHEM_MMFF94_ENERGY>
-17.378

> <PUBCHEM_FEATURE_SELFOVERLAP>
91.485

> <PUBCHEM_SHAPE_FINGERPRINT>
10616163 171 18411420588253098630
12173636 292 18050281471245953268
12553582 1 18122072158730515902
13140716 1 18339648952973870513
138480 1 16466424886571468799
14790565 3 18196375810290248585
15042514 8 18409172104027104235
16752209 62 18265598893273498993
16945 1 18340480084758993345
19591789 44 18051131397796458899
20510252 161 18128815240010344200
20645476 183 18191303771455688120
20645477 70 17326594299686355439
21452121 199 18049992591523434896
21665056 4 18194116313656934420
23402539 116 18269545070902901741
23557571 272 18272652312580724172
23559900 14 18271800182584271192
23728640 28 18339077069108762811
2748010 2 18196639907833956533
43471831 8 17977103461952586401
54173680 148 18411416223953778969
559249 180 17901945245530850050
7364860 26 17474101485064298865
81228 2 18335971051786561849
8809292 202 18342174449282808128
9709674 26 18200875068000575398

> <PUBCHEM_SHAPE_MULTIPOLES>
363.57
7.07
4.25
1.07
9.34
1.29
-0.01
3.49
0.14
-4.68
0.43
0.18
0.12
-0.07

> <PUBCHEM_SHAPE_SELFOVERLAP>
706.428

> <PUBCHEM_SHAPE_VOLUME>
220.7

> <PUBCHEM_COORDINATE_TYPE>
2
5
10