193522
  -OEChem-05042113263D

 45 45  0     1  0  0  0  0  0999 V2000
   -2.4949   -0.6014    1.1743 O   0  0  0  0  0  0  0  0  0  0  0  0
   -1.3675    0.8618   -0.2750 O   0  0  0  0  0  0  0  0  0  0  0  0
   -3.7612    1.7136   -1.2825 O   0  0  0  0  0  0  0  0  0  0  0  0
   -5.0745   -1.0867   -1.2358 O   0  0  0  0  0  0  0  0  0  0  0  0
   -2.5829    3.0499    1.0281 O   0  0  0  0  0  0  0  0  0  0  0  0
   -2.0965   -3.3809    1.1745 O   0  0  0  0  0  0  0  0  0  0  0  0
    1.0957    2.0156   -0.8625 O   0  0  0  0  0  0  0  0  0  0  0  0
    2.1915   -1.2517    0.4059 O   0  0  0  0  0  0  0  0  0  0  0  0
    3.3742   -0.3944   -2.0717 O   0  0  0  0  0  0  0  0  0  0  0  0
    5.5596   -1.0548   -0.7591 O   0  0  0  0  0  0  0  0  0  0  0  0
    6.5692   -0.0188    1.4789 O   0  0  0  0  0  0  0  0  0  0  0  0
   -2.5070    0.7064    0.5724 C   0  0  1  0  0  0  0  0  0  0  0  0
   -3.7765    0.7244   -0.2728 C   0  0  2  0  0  0  0  0  0  0  0  0
   -3.7792   -0.6817   -0.8337 C   0  0  1  0  0  0  0  0  0  0  0  0
   -3.3081   -1.4838    0.3741 C   0  0  1  0  0  0  0  0  0  0  0  0
   -2.4964    1.7793    1.6500 C   0  0  0  0  0  0  0  0  0  0  0  0
   -2.4969   -2.7097   -0.0087 C   0  0  0  0  0  0  0  0  0  0  0  0
   -0.1789    0.4047    0.3624 C   0  0  0  0  0  0  0  0  0  0  0  0
    1.0020    0.6188   -0.5848 C   0  0  2  0  0  0  0  0  0  0  0  0
    2.3237    0.1142    0.0236 C   0  0  2  0  0  0  0  0  0  0  0  0
    3.5712    0.3092   -0.8515 C   0  0  1  0  0  0  0  0  0  0  0  0
    4.8866   -0.1652   -0.2362 C   0  0  0  0  0  0  0  0  0  0  0  0
    5.3468    0.5310    1.0302 C   0  0  0  0  0  0  0  0  0  0  0  0
   -4.6718    0.8798    0.3430 H   0  0  0  0  0  0  0  0  0  0  0  0
   -3.1083   -0.7710   -1.6956 H   0  0  0  0  0  0  0  0  0  0  0  0
   -4.1476   -1.7925    1.0094 H   0  0  0  0  0  0  0  0  0  0  0  0
   -3.3557    1.6559    2.3194 H   0  0  0  0  0  0  0  0  0  0  0  0
   -1.6042    1.7541    2.2801 H   0  0  0  0  0  0  0  0  0  0  0  0
   -3.0892   -3.3964   -0.6213 H   0  0  0  0  0  0  0  0  0  0  0  0
   -1.5908   -2.4286   -0.5550 H   0  0  0  0  0  0  0  0  0  0  0  0
   -0.2548   -0.6605    0.5990 H   0  0  0  0  0  0  0  0  0  0  0  0
    0.0068    0.9687    1.2806 H   0  0  0  0  0  0  0  0  0  0  0  0
    0.7969    0.1051   -1.5315 H   0  0  0  0  0  0  0  0  0  0  0  0
   -3.6689    2.5770   -0.8452 H   0  0  0  0  0  0  0  0  0  0  0  0
   -5.6768   -0.9888   -0.4789 H   0  0  0  0  0  0  0  0  0  0  0  0
    2.4847    0.6795    0.9505 H   0  0  0  0  0  0  0  0  0  0  0  0
    3.6983    1.3663   -1.1085 H   0  0  0  0  0  0  0  0  0  0  0  0
   -2.5974    3.7156    1.7368 H   0  0  0  0  0  0  0  0  0  0  0  0
   -1.5800   -4.1582    0.9018 H   0  0  0  0  0  0  0  0  0  0  0  0
    0.2420    2.2972   -1.2337 H   0  0  0  0  0  0  0  0  0  0  0  0
    2.9823   -1.4992    0.9138 H   0  0  0  0  0  0  0  0  0  0  0  0
    3.1951   -1.3249   -1.8520 H   0  0  0  0  0  0  0  0  0  0  0  0
    5.4897    1.5944    0.8196 H   0  0  0  0  0  0  0  0  0  0  0  0
    4.6001    0.3941    1.8156 H   0  0  0  0  0  0  0  0  0  0  0  0
    6.8288    0.4715    2.2774 H   0  0  0  0  0  0  0  0  0  0  0  0
  1 12  1  0  0  0  0
  1 15  1  0  0  0  0
  2 12  1  0  0  0  0
  2 18  1  0  0  0  0
  3 13  1  0  0  0  0
  3 34  1  0  0  0  0
  4 14  1  0  0  0  0
  4 35  1  0  0  0  0
  5 16  1  0  0  0  0
  5 38  1  0  0  0  0
  6 17  1  0  0  0  0
  6 39  1  0  0  0  0
  7 19  1  0  0  0  0
  7 40  1  0  0  0  0
  8 20  1  0  0  0  0
  8 41  1  0  0  0  0
  9 21  1  0  0  0  0
  9 42  1  0  0  0  0
 10 22  2  0  0  0  0
 11 23  1  0  0  0  0
 11 45  1  0  0  0  0
 12 13  1  0  0  0  0
 12 16  1  0  0  0  0
 13 14  1  0  0  0  0
 13 24  1  0  0  0  0
 14 15  1  0  0  0  0
 14 25  1  0  0  0  0
 15 17  1  0  0  0  0
 15 26  1  0  0  0  0
 16 27  1  0  0  0  0
 16 28  1  0  0  0  0
 17 29  1  0  0  0  0
 17 30  1  0  0  0  0
 18 19  1  0  0  0  0
 18 31  1  0  0  0  0
 18 32  1  0  0  0  0
 19 20  1  0  0  0  0
 19 33  1  0  0  0  0
 20 21  1  0  0  0  0
 20 36  1  0  0  0  0
 21 22  1  0  0  0  0
 21 37  1  0  0  0  0
 22 23  1  0  0  0  0
 23 43  1  0  0  0  0
 23 44  1  0  0  0  0
M  END
> <PUBCHEM_COMPOUND_CID>
193522

> <PUBCHEM_CONFORMER_RMSD>
1

> <PUBCHEM_CONFORMER_DIVERSEORDER>
1
52
70
11
12
7
59
67
45
40
24
34
39
9
66
30
15
60
48
69
44
3
19
6
54
49
42
14
64
18
28
63
20
41
21
8
38
53
27
51
26
25
22
35
56
65
68
31
32
36
58
29
50
61
16
33
43
71
46
4
23
47
13
10
57
17
62
37
5
2
55

> <PUBCHEM_MMFF94_PARTIAL_CHARGES>
31
1 -0.56
10 -0.57
11 -0.68
12 0.56
13 0.28
14 0.28
15 0.28
16 0.28
17 0.28
18 0.28
19 0.28
2 -0.56
20 0.28
21 0.34
22 0.45
23 0.34
3 -0.68
34 0.4
35 0.4
38 0.4
39 0.4
4 -0.68
40 0.4
41 0.4
42 0.4
45 0.4
5 -0.68
6 -0.68
7 -0.68
8 -0.68
9 -0.68

> <PUBCHEM_EFFECTIVE_ROTOR_COUNT>
10

> <PUBCHEM_PHARMACOPHORE_FEATURES>
20
1 1 acceptor
1 10 acceptor
1 11 acceptor
1 11 donor
1 2 acceptor
1 3 acceptor
1 3 donor
1 4 acceptor
1 4 donor
1 5 acceptor
1 5 donor
1 6 acceptor
1 6 donor
1 7 acceptor
1 7 donor
1 8 acceptor
1 8 donor
1 9 acceptor
1 9 donor
5 1 12 13 14 15 rings

> <PUBCHEM_HEAVY_ATOM_COUNT>
23

> <PUBCHEM_ATOM_DEF_STEREO_COUNT>
7

> <PUBCHEM_ATOM_UDEF_STEREO_COUNT>
0

> <PUBCHEM_BOND_DEF_STEREO_COUNT>
0

> <PUBCHEM_BOND_UDEF_STEREO_COUNT>
0

> <PUBCHEM_ISOTOPIC_ATOM_COUNT>
0

> <PUBCHEM_COMPONENT_COUNT>
1

> <PUBCHEM_CACTVS_TAUTO_COUNT>
10

> <PUBCHEM_CONFORMER_ID>
0002F3F200000001

> <PUBCHEM_MMFF94_ENERGY>
59.2016

> <PUBCHEM_FEATURE_SELFOVERLAP>
101.605

> <PUBCHEM_SHAPE_FINGERPRINT>
10366900 7 17918267662457598578
10803635 8 17821718447111569607
11045977 3 18272645766923588056
11315181 36 18272369771956076552
12596602 18 14548741724509015222
12616971 3 17749682830574314948
12788726 201 18342735175012843795
14251740 79 18261393390500001539
14863182 85 15527996845457615627
15183329 4 13262669310781939304
15788980 27 16877665660564609548
15880784 105 16487262066610877254
167882 2 17681824112850787911
17349148 13 17603309258689533816
17844677 252 17275111613572870952
18222031 100 18259705597560089876
18927931 339 17917723391469843956
19433438 15 17240206534057947406
19489759 90 18341890775399068488
200 152 18341893017487976589
20511986 3 17749933527894205000
23402539 116 18343864412056826429
23557571 272 18202843266269647329
23559900 14 18267011933382641089
339767 52 18261947531290745898
5104073 3 18335709406943155392
5281201 14 11674886602171611366
53917941 68 18197776605647816729
542803 24 10231754496470531060
559249 180 17967525753280236299
633830 44 15719680934945093852
90127 26 17060349487660659632
9709674 26 18201732733834820094
9981440 41 18410576167307087675

> <PUBCHEM_SHAPE_MULTIPOLES>
408.77
12.52
2.51
1.42
17.54
0.64
0.05
1.88
-0.17
-3.63
-0.8
0.27
-0.12
0.14

> <PUBCHEM_SHAPE_SELFOVERLAP>
821.231

> <PUBCHEM_SHAPE_VOLUME>
239.1

> <PUBCHEM_COORDINATE_TYPE>
2
5
10