20484
  -OEChem-05042113263D

 25 25  0     1  0  0  0  0  0999 V2000
    0.6558    1.3256   -0.0999 O   0  0  0  0  0  0  0  0  0  0  0  0
    0.0911   -2.3075   -0.1055 O   0  0  0  0  0  0  0  0  0  0  0  0
    1.3164   -0.3488    1.4366 O   0  0  0  0  0  0  0  0  0  0  0  0
   -2.6075   -1.2395   -0.0848 O   0  0  0  0  0  0  0  0  0  0  0  0
   -2.0642    1.2691   -1.0707 O   0  0  0  0  0  0  0  0  0  0  0  0
    3.3096    0.4661   -0.3681 N   0  0  0  0  0  0  0  0  0  0  0  0
   -0.2117   -0.9363   -0.3510 C   0  0  2  0  0  0  0  0  0  0  0  0
    0.9828   -0.0603    0.0751 C   0  0  1  0  0  0  0  0  0  0  0  0
   -1.4746   -0.5361    0.4172 C   0  0  1  0  0  0  0  0  0  0  0  0
   -1.7267    0.9654    0.2851 C   0  0  1  0  0  0  0  0  0  0  0  0
   -0.4782    1.7550    0.6606 C   0  0  0  0  0  0  0  0  0  0  0  0
    2.2072   -0.3526   -0.7946 C   0  0  0  0  0  0  0  0  0  0  0  0
   -0.4023   -0.8301   -1.4268 H   0  0  0  0  0  0  0  0  0  0  0  0
   -1.3757   -0.8119    1.4735 H   0  0  0  0  0  0  0  0  0  0  0  0
   -2.5756    1.2743    0.9046 H   0  0  0  0  0  0  0  0  0  0  0  0
   -0.6229    2.8165    0.4341 H   0  0  0  0  0  0  0  0  0  0  0  0
   -0.2557    1.6671    1.7298 H   0  0  0  0  0  0  0  0  0  0  0  0
    1.9901   -0.1277   -1.8445 H   0  0  0  0  0  0  0  0  0  0  0  0
    2.5140   -1.4009   -0.7260 H   0  0  0  0  0  0  0  0  0  0  0  0
    0.7195   -2.6006   -0.7863 H   0  0  0  0  0  0  0  0  0  0  0  0
    2.1882    0.0307    1.6288 H   0  0  0  0  0  0  0  0  0  0  0  0
   -2.6227   -1.1415   -1.0517 H   0  0  0  0  0  0  0  0  0  0  0  0
   -2.9341    0.8740   -1.2503 H   0  0  0  0  0  0  0  0  0  0  0  0
    3.7059    0.1264    0.5054 H   0  0  0  0  0  0  0  0  0  0  0  0
    3.0045    1.4236   -0.2014 H   0  0  0  0  0  0  0  0  0  0  0  0
  1  8  1  0  0  0  0
  1 11  1  0  0  0  0
  2  7  1  0  0  0  0
  2 20  1  0  0  0  0
  3  8  1  0  0  0  0
  3 21  1  0  0  0  0
  4  9  1  0  0  0  0
  4 22  1  0  0  0  0
  5 10  1  0  0  0  0
  5 23  1  0  0  0  0
  6 12  1  0  0  0  0
  6 24  1  0  0  0  0
  6 25  1  0  0  0  0
  7  8  1  0  0  0  0
  7  9  1  0  0  0  0
  7 13  1  0  0  0  0
  8 12  1  0  0  0  0
  9 10  1  0  0  0  0
  9 14  1  0  0  0  0
 10 11  1  0  0  0  0
 10 15  1  0  0  0  0
 11 16  1  0  0  0  0
 11 17  1  0  0  0  0
 12 18  1  0  0  0  0
 12 19  1  0  0  0  0
M  END
> <PUBCHEM_COMPOUND_CID>
20484

> <PUBCHEM_CONFORMER_RMSD>
0.6

> <PUBCHEM_CONFORMER_DIVERSEORDER>
1
2
3

> <PUBCHEM_MMFF94_PARTIAL_CHARGES>
18
1 -0.56
10 0.28
11 0.28
12 0.27
2 -0.68
20 0.4
21 0.4
22 0.4
23 0.4
24 0.36
25 0.36
3 -0.68
4 -0.68
5 -0.68
6 -0.99
7 0.28
8 0.56
9 0.28

> <PUBCHEM_EFFECTIVE_ROTOR_COUNT>
2.2

> <PUBCHEM_PHARMACOPHORE_FEATURES>
12
1 1 acceptor
1 2 acceptor
1 2 donor
1 3 acceptor
1 3 donor
1 4 acceptor
1 4 donor
1 5 acceptor
1 5 donor
1 6 cation
1 6 donor
6 1 7 8 9 10 11 rings

> <PUBCHEM_HEAVY_ATOM_COUNT>
12

> <PUBCHEM_ATOM_DEF_STEREO_COUNT>
4

> <PUBCHEM_ATOM_UDEF_STEREO_COUNT>
0

> <PUBCHEM_BOND_DEF_STEREO_COUNT>
0

> <PUBCHEM_BOND_UDEF_STEREO_COUNT>
0

> <PUBCHEM_ISOTOPIC_ATOM_COUNT>
0

> <PUBCHEM_COMPONENT_COUNT>
1

> <PUBCHEM_CACTVS_TAUTO_COUNT>
1

> <PUBCHEM_CONFORMER_ID>
0000500400000001

> <PUBCHEM_MMFF94_ENERGY>
30.6156

> <PUBCHEM_FEATURE_SELFOVERLAP>
60.964

> <PUBCHEM_SHAPE_FINGERPRINT>
11206711 2 18409445912281268589
12423570 1 9627277255414155425
12716758 59 18411989039879680302
12897270 3 18341620256846954708
13024252 1 15864361297466645840
15310529 11 17168146693757683953
15775835 57 17967821517887596868
161256 15 18122903402379259369
16945 1 17749680687016057258
20653085 51 17750255663263113980
21040471 1 18051971424722258385
21922407 69 16443355272989118361
22802520 49 17843423803107721318
23235685 24 18341052891667360865
23552423 10 18263652757739957630
241688 4 17977666734023182993
2748010 2 18340479084068270225
29004967 10 15626231169525392886
369184 2 17095531681689382672
5084963 1 18059861704799319347
528886 8 18342746169417153089
6333449 129 18342741831938059860

> <PUBCHEM_SHAPE_MULTIPOLES>
212.63
3.38
1.81
0.93
1.4
0.3
-0.1
-0.19
0.66
-0.62
-0.02
0.07
-0.11
0.09

> <PUBCHEM_SHAPE_SELFOVERLAP>
426.957

> <PUBCHEM_SHAPE_VOLUME>
123.3

> <PUBCHEM_COORDINATE_TYPE>
2
5
10