21114947
  -OEChem-05042113263D

 27 26  0     1  0  0  0  0  0999 V2000
   -4.2258   -0.3057   -0.1093 P   0  0  0  0  0  0  0  0  0  0  0  0
    0.9757   -0.3803   -1.4554 O   0  0  0  0  0  0  0  0  0  0  0  0
   -0.4628    0.8494    1.6917 O   0  0  0  0  0  0  0  0  0  0  0  0
    2.1608    2.0044   -0.3685 O   0  0  0  0  0  0  0  0  0  0  0  0
   -2.7852    0.4285    0.2175 O   0  0  0  0  0  0  0  0  0  0  0  0
    4.3449    0.5965   -0.7957 O   0  0  0  0  0  0  0  0  0  0  0  0
    5.1025   -1.7215    0.2784 O   0  0  0  0  0  0  0  0  0  0  0  0
   -5.2577    0.7117    0.3685 O   0  5  0  0  0  0  0  0  0  0  0  0
   -4.2006   -1.5937    0.7083 O   0  5  0  0  0  0  0  0  0  0  0  0
   -4.2198   -0.5193   -1.6202 O   0  0  0  0  0  0  0  0  0  0  0  0
    0.9517   -0.0456   -0.0709 C   0  0  2  0  0  0  0  0  0  0  0  0
   -0.3916    0.6179    0.2852 C   0  0  1  0  0  0  0  0  0  0  0  0
    2.2061    0.7555    0.3104 C   0  0  1  0  0  0  0  0  0  0  0  0
   -1.5810   -0.2581   -0.1092 C   0  0  0  0  0  0  0  0  0  0  0  0
    3.5392    0.0846   -0.0168 C   0  0  0  0  0  0  0  0  0  0  0  0
    3.8437   -1.2243    0.6861 C   0  0  0  0  0  0  0  0  0  0  0  0
    0.9929   -0.9959    0.4767 H   0  0  0  0  0  0  0  0  0  0  0  0
   -0.4825    1.5889   -0.2159 H   0  0  0  0  0  0  0  0  0  0  0  0
    2.2102    0.9744    1.3835 H   0  0  0  0  0  0  0  0  0  0  0  0
   -1.5769   -0.4724   -1.1818 H   0  0  0  0  0  0  0  0  0  0  0  0
   -1.5620   -1.2009    0.4475 H   0  0  0  0  0  0  0  0  0  0  0  0
    1.7657   -0.9220   -1.6197 H   0  0  0  0  0  0  0  0  0  0  0  0
   -1.3244    1.2610    1.8765 H   0  0  0  0  0  0  0  0  0  0  0  0
    3.8604   -1.0527    1.7658 H   0  0  0  0  0  0  0  0  0  0  0  0
    3.0826   -1.9643    0.4286 H   0  0  0  0  0  0  0  0  0  0  0  0
    2.0912    1.8218   -1.3214 H   0  0  0  0  0  0  0  0  0  0  0  0
    5.2577   -2.5468    0.7686 H   0  0  0  0  0  0  0  0  0  0  0  0
  1  5  1  0  0  0  0
  1  8  1  0  0  0  0
  1  9  1  0  0  0  0
  1 10  2  0  0  0  0
  2 11  1  0  0  0  0
  2 22  1  0  0  0  0
  3 12  1  0  0  0  0
  3 23  1  0  0  0  0
  4 13  1  0  0  0  0
  4 26  1  0  0  0  0
  5 14  1  0  0  0  0
  6 15  2  0  0  0  0
  7 16  1  0  0  0  0
  7 27  1  0  0  0  0
 11 12  1  0  0  0  0
 11 13  1  0  0  0  0
 11 17  1  0  0  0  0
 12 14  1  0  0  0  0
 12 18  1  0  0  0  0
 13 15  1  0  0  0  0
 13 19  1  0  0  0  0
 14 20  1  0  0  0  0
 14 21  1  0  0  0  0
 15 16  1  0  0  0  0
 16 24  1  0  0  0  0
 16 25  1  0  0  0  0
M  CHG  2   8  -1   9  -1
M  END
> <PUBCHEM_COMPOUND_CID>
21114947

> <PUBCHEM_CONFORMER_RMSD>
1

> <PUBCHEM_CONFORMER_DIVERSEORDER>
1
10
6
86
32
71
57
23
41
42
74
16
34
46
76
70
48
64
88
19
62
26
61
68
43
5
66
38
11
15
53
24
35
14
9
47
8
7
84
77
49
56
83
18
45
37
25
54
33
40
51
22
69
27
80
85
82
65
30
31
59
17
2
81
3
12
79
21
13
39
36
20
73
28
87
58
4
44
75
72
90
63
29
60
55
78
50
89
52
67

> <PUBCHEM_MMFF94_PARTIAL_CHARGES>
20
1 1.37
10 -1.03
11 0.28
12 0.28
13 0.34
14 0.28
15 0.45
16 0.34
2 -0.68
22 0.4
23 0.4
26 0.4
27 0.4
3 -0.68
4 -0.68
5 -0.55
6 -0.57
7 -0.68
8 -1.03
9 -1.03

> <PUBCHEM_EFFECTIVE_ROTOR_COUNT>
7

> <PUBCHEM_PHARMACOPHORE_FEATURES>
13
1 10 acceptor
1 2 acceptor
1 2 donor
1 3 acceptor
1 3 donor
1 4 acceptor
1 4 donor
1 6 acceptor
1 7 acceptor
1 7 donor
1 8 acceptor
1 9 acceptor
4 1 8 9 10 anion

> <PUBCHEM_HEAVY_ATOM_COUNT>
16

> <PUBCHEM_ATOM_DEF_STEREO_COUNT>
3

> <PUBCHEM_ATOM_UDEF_STEREO_COUNT>
0

> <PUBCHEM_BOND_DEF_STEREO_COUNT>
0

> <PUBCHEM_BOND_UDEF_STEREO_COUNT>
0

> <PUBCHEM_ISOTOPIC_ATOM_COUNT>
0

> <PUBCHEM_COMPONENT_COUNT>
1

> <PUBCHEM_CACTVS_TAUTO_COUNT>
10

> <PUBCHEM_CONFORMER_ID>
0142304300000001

> <PUBCHEM_MMFF94_ENERGY>
29.5914

> <PUBCHEM_FEATURE_SELFOVERLAP>
66.044

> <PUBCHEM_SHAPE_FINGERPRINT>
11132069 177 16487538052682355573
11401426 45 16845569812285152289
12916748 109 14779268609363837661
13167823 11 18334012817456793483
13690532 89 18411418393271083098
14251718 22 17458349684021675478
14252887 29 13973692744845323580
14573314 32 17095235887249431574
14911166 2 14634876331599422266
15375358 24 12607405511516081493
17834072 33 18040721398151535572
17834072 8 17603578608741686591
17862501 102 17917989456161976954
18186145 218 17458620146834341865
19784866 240 18337395920800087090
200 152 18413671305117229857
20279233 1 16630530635471144853
20281475 54 18270676584273685263
20645477 70 18113902641655204106
22485316 2 18335420196624472155
22646028 1 18201996638094800895
23402539 116 18130782348243250757
23402655 69 16298375843151719871
23557571 272 18270966739337603461
23559900 14 18261110811732058960
26918003 58 18343864398723460147
4072396 5 17489584515590621910
42 15 18407760322053424403
465052 167 18413113861744872870
4990 188 16805319994190015234
5104073 3 17417527038107934579
522135 26 18187365432954075172
5374978 207 17275099531602767464
633830 44 16008744740762817247

> <PUBCHEM_SHAPE_MULTIPOLES>
280.3
11.13
1.37
1.09
4.37
0.09
-0.11
3.42
-0.39
-0.99
0.16
0.42
0.01
-0.51

> <PUBCHEM_SHAPE_SELFOVERLAP>
528.756

> <PUBCHEM_SHAPE_VOLUME>
173.6

> <PUBCHEM_COORDINATE_TYPE>
2
5
10