21120559
  -OEChem-05042113263D

 46 47  0     1  0  0  0  0  0999 V2000
   -5.3920   -1.2596    1.1053 O   0  0  0  0  0  0  0  0  0  0  0  0
   -5.1026   -0.8425   -1.5715 O   0  0  0  0  0  0  0  0  0  0  0  0
   -6.6319    0.9835   -0.0934 O   0  0  0  0  0  0  0  0  0  0  0  0
   -2.9611   -2.3792   -1.3486 O   0  0  0  0  0  0  0  0  0  0  0  0
   -5.5984    3.5402    1.1326 O   0  0  0  0  0  0  0  0  0  0  0  0
    4.9392    2.9525   -1.7596 O   0  0  0  0  0  0  0  0  0  0  0  0
   -0.4861   -1.4440   -0.6031 N   0  0  0  0  0  0  0  0  0  0  0  0
    4.9302   -1.3768    1.6042 N   0  0  0  0  0  0  0  0  0  0  0  0
   -4.6338   -0.1118    0.7011 C   0  0  1  0  0  0  0  0  0  0  0  0
   -4.0865   -0.3449   -0.7139 C   0  0  1  0  0  0  0  0  0  0  0  0
   -5.5470    1.1220    0.8317 C   0  0  1  0  0  0  0  0  0  0  0  0
    1.9675   -1.6623   -0.5505 C   0  0  0  0  0  0  0  0  0  0  0  0
    3.2270   -1.3051    0.1825 C   0  0  0  0  0  0  0  0  0  0  0  0
    0.7243   -1.0644    0.1131 C   0  0  0  0  0  0  0  0  0  0  0  0
   -1.6679   -0.8834    0.0365 C   0  0  0  0  0  0  0  0  0  0  0  0
    4.0469   -0.1652   -0.0479 C   0  0  0  0  0  0  0  0  0  0  0  0
   -2.9029   -1.3129   -0.7347 C   0  0  0  0  0  0  0  0  0  0  0  0
    5.1082   -0.2341    0.8572 C   0  0  0  0  0  0  0  0  0  0  0  0
    3.7960   -2.0309    1.2035 C   0  0  0  0  0  0  0  0  0  0  0  0
   -4.8627    2.4626    0.5666 C   0  0  0  0  0  0  0  0  0  0  0  0
    3.9879    0.9220   -0.9422 C   0  0  0  0  0  0  0  0  0  0  0  0
    6.1175    0.7337    0.9129 C   0  0  0  0  0  0  0  0  0  0  0  0
    4.9903    1.8977   -0.8980 C   0  0  0  0  0  0  0  0  0  0  0  0
    6.0378    1.8030    0.0161 C   0  0  0  0  0  0  0  0  0  0  0  0
   -3.8179    0.0023    1.4230 H   0  0  0  0  0  0  0  0  0  0  0  0
   -3.7201    0.5890   -1.1527 H   0  0  0  0  0  0  0  0  0  0  0  0
   -6.0016    1.1339    1.8299 H   0  0  0  0  0  0  0  0  0  0  0  0
    1.8758   -2.7558   -0.5918 H   0  0  0  0  0  0  0  0  0  0  0  0
    2.0405   -1.3201   -1.5907 H   0  0  0  0  0  0  0  0  0  0  0  0
    0.6671   -1.4153    1.1513 H   0  0  0  0  0  0  0  0  0  0  0  0
    0.8182    0.0288    0.1438 H   0  0  0  0  0  0  0  0  0  0  0  0
   -1.6142    0.2107    0.0369 H   0  0  0  0  0  0  0  0  0  0  0  0
   -1.7735   -1.2442    1.0649 H   0  0  0  0  0  0  0  0  0  0  0  0
   -0.4273   -1.1132   -1.5661 H   0  0  0  0  0  0  0  0  0  0  0  0
    3.4969   -2.9530    1.6821 H   0  0  0  0  0  0  0  0  0  0  0  0
   -3.8674    2.4773    1.0224 H   0  0  0  0  0  0  0  0  0  0  0  0
   -4.7693    2.6535   -0.5073 H   0  0  0  0  0  0  0  0  0  0  0  0
    5.5478   -1.6872    2.3414 H   0  0  0  0  0  0  0  0  0  0  0  0
    3.1718    0.9997   -1.6553 H   0  0  0  0  0  0  0  0  0  0  0  0
    6.9333    0.6608    1.6242 H   0  0  0  0  0  0  0  0  0  0  0  0
   -4.7911   -2.0241    1.0983 H   0  0  0  0  0  0  0  0  0  0  0  0
   -5.4775   -1.6383   -1.1568 H   0  0  0  0  0  0  0  0  0  0  0  0
   -7.0639    0.1318    0.0907 H   0  0  0  0  0  0  0  0  0  0  0  0
    6.8093    2.5693    0.0383 H   0  0  0  0  0  0  0  0  0  0  0  0
   -5.1082    4.3564    0.9342 H   0  0  0  0  0  0  0  0  0  0  0  0
    4.1507    2.8627   -2.3219 H   0  0  0  0  0  0  0  0  0  0  0  0
  1  9  1  0  0  0  0
  1 41  1  0  0  0  0
  2 10  1  0  0  0  0
  2 42  1  0  0  0  0
  3 11  1  0  0  0  0
  3 43  1  0  0  0  0
  4 17  2  0  0  0  0
  5 20  1  0  0  0  0
  5 45  1  0  0  0  0
  6 23  1  0  0  0  0
  6 46  1  0  0  0  0
  7 14  1  0  0  0  0
  7 15  1  0  0  0  0
  7 34  1  0  0  0  0
  8 18  1  0  0  0  0
  8 19  1  0  0  0  0
  8 38  1  0  0  0  0
  9 10  1  0  0  0  0
  9 11  1  0  0  0  0
  9 25  1  0  0  0  0
 10 17  1  0  0  0  0
 10 26  1  0  0  0  0
 11 20  1  0  0  0  0
 11 27  1  0  0  0  0
 12 13  1  0  0  0  0
 12 14  1  0  0  0  0
 12 28  1  0  0  0  0
 12 29  1  0  0  0  0
 13 16  1  0  0  0  0
 13 19  2  0  0  0  0
 14 30  1  0  0  0  0
 14 31  1  0  0  0  0
 15 17  1  0  0  0  0
 15 32  1  0  0  0  0
 15 33  1  0  0  0  0
 16 18  2  0  0  0  0
 16 21  1  0  0  0  0
 18 22  1  0  0  0  0
 19 35  1  0  0  0  0
 20 36  1  0  0  0  0
 20 37  1  0  0  0  0
 21 23  2  0  0  0  0
 21 39  1  0  0  0  0
 22 24  2  0  0  0  0
 22 40  1  0  0  0  0
 23 24  1  0  0  0  0
 24 44  1  0  0  0  0
M  END
> <PUBCHEM_COMPOUND_CID>
21120559

> <PUBCHEM_CONFORMER_RMSD>
1

> <PUBCHEM_CONFORMER_DIVERSEORDER>
1
73
10
35
87
244
66
239
216
171
132
219
50
161
4
136
106
143
178
221
82
188
209
211
42
235
93
196
189
116
117
114
237
33
27
184
173
22
58
2
153
46
40
181
64
61
105
75
100
96
9
57
227
213
43
233
158
83
63
198
231
151
175
13
71
78
20
72
15
242
128
183
169
3
126
139
102
146
210
119
99
186
150
167
74
141
62
241
107
121
28
101
103
92
17
142
18
52
77
236
111
138
228
212
182
200
234
164
81
148
53
174
125
162
199
232
90
130
197
131
113
168
30
94
109
160
8
68
24
59
97
70
48
218
6
208
155
129
165
220
60
187
206
41
159
23
67
222
134
5
223
11
65
26
12
84
88
230
38
226
152
170
86
190
224
135
204
205
76
185
51
124
95
44
91
147
192
140
144
34
120
16
39
89
145
215
195
79
112
203
123
55
32
56
36
122
133
166
85
207
47
69
110
180
229
238
115
29
157
37
7
225
243
80
191
149
45
104
118
14
21
194
156
137
176
54
177
127
172
163
217
240
193
31
19
108
202
154
49
201
25
179
214
98

> <PUBCHEM_MMFF94_PARTIAL_CHARGES>
34
1 -0.68
10 0.34
11 0.28
12 0.18
13 -0.18
14 0.27
15 0.33
17 0.45
18 -0.15
19 -0.3
2 -0.68
20 0.28
21 -0.15
22 -0.15
23 0.08
24 -0.15
3 -0.68
34 0.36
35 0.15
38 0.27
39 0.15
4 -0.57
40 0.15
41 0.4
42 0.4
43 0.4
44 0.15
45 0.4
46 0.45
5 -0.68
6 -0.53
7 -0.9
8 0.03
9 0.28

> <PUBCHEM_EFFECTIVE_ROTOR_COUNT>
9

> <PUBCHEM_PHARMACOPHORE_FEATURES>
16
1 1 acceptor
1 1 donor
1 2 acceptor
1 2 donor
1 3 acceptor
1 3 donor
1 4 acceptor
1 5 acceptor
1 5 donor
1 6 donor
1 7 cation
1 7 donor
1 8 cation
1 8 donor
5 8 13 16 18 19 rings
6 16 18 21 22 23 24 rings

> <PUBCHEM_HEAVY_ATOM_COUNT>
24

> <PUBCHEM_ATOM_DEF_STEREO_COUNT>
3

> <PUBCHEM_ATOM_UDEF_STEREO_COUNT>
0

> <PUBCHEM_BOND_DEF_STEREO_COUNT>
0

> <PUBCHEM_BOND_UDEF_STEREO_COUNT>
0

> <PUBCHEM_ISOTOPIC_ATOM_COUNT>
0

> <PUBCHEM_COMPONENT_COUNT>
1

> <PUBCHEM_CACTVS_TAUTO_COUNT>
80

> <PUBCHEM_CONFORMER_ID>
0142462F00000001

> <PUBCHEM_MMFF94_ENERGY>
35.5986

> <PUBCHEM_FEATURE_SELFOVERLAP>
81.329

> <PUBCHEM_SHAPE_FINGERPRINT>
10554248 39 18129649795268900895
10912923 1 18337098055558599694
12422481 6 17822294526869881029
12596602 18 18040718073920994283
12616971 3 18334849524494413198
12975358 362 17911263641079409497
13167372 99 18411417289580422258
13785724 45 17832419800986783474
14251764 75 17752778102236670532
15183329 4 18060135457662377761
15188451 53 13984660390976637923
15348495 7 17313386750774080427
15419008 145 18188479178415278648
1768 23 18200051563682264017
17913733 40 16805599240210880507
19377110 9 18262235633170138919
20281389 69 18273211976330029523
21298829 104 18338234972779197492
21302155 148 18343305834037396237
22033318 11 18119251662439528040
22122407 14 18336554909762424256
23081809 10 18272079500707301039
23569914 152 13107065191983607289
268830 7 18187074062056567382
2748736 6 18199463277901411953
2838139 119 18201715197767913896
312425 54 16950285092064503851
34797466 226 16128091281760236946
3663271 9 18113618997387713011
397830 11 17168433760781742883
44249763 50 16916483935383302355
465052 167 11025798682836782522
5104073 3 17096071490337790700
7062679 6 18272370867177693413
7970288 3 8790345308643369416
960060 61 12103845674706581338

> <PUBCHEM_SHAPE_MULTIPOLES>
448.73
20.06
3
1.36
9.68
2.15
0.11
11.45
-3.26
0.84
0.08
-0.27
0.05
-3.73

> <PUBCHEM_SHAPE_SELFOVERLAP>
934.257

> <PUBCHEM_SHAPE_VOLUME>
255.6

> <PUBCHEM_COORDINATE_TYPE>
2
5
10