21155828
  -OEChem-05042113263D

 45 45  0     1  0  0  0  0  0999 V2000
   -2.3924   -0.1659    1.1954 O   0  0  0  0  0  0  0  0  0  0  0  0
   -1.1309    0.4810   -0.6761 O   0  0  0  0  0  0  0  0  0  0  0  0
   -3.2954    1.8158   -1.6779 O   0  0  0  0  0  0  0  0  0  0  0  0
   -5.3518   -0.3153   -0.7840 O   0  0  0  0  0  0  0  0  0  0  0  0
   -2.7205    2.7688    1.6320 O   0  0  0  0  0  0  0  0  0  0  0  0
   -2.8379   -2.8469    1.9015 O   0  0  0  0  0  0  0  0  0  0  0  0
    2.9724   -1.9010   -1.3429 O   0  0  0  0  0  0  0  0  0  0  0  0
    3.4540    0.9323   -1.4578 O   0  0  0  0  0  0  0  0  0  0  0  0
    0.5611   -1.0830   -2.0148 O   0  0  0  0  0  0  0  0  0  0  0  0
    4.6050   -0.7808    1.5797 O   0  0  0  0  0  0  0  0  0  0  0  0
    6.8775    0.6988    0.9551 O   0  0  0  0  0  0  0  0  0  0  0  0
   -2.1141    0.9020    0.2708 C   0  0  1  0  0  0  0  0  0  0  0  0
   -3.4401    1.1414   -0.4439 C   0  0  2  0  0  0  0  0  0  0  0  0
   -3.9477   -0.2753   -0.6094 C   0  0  1  0  0  0  0  0  0  0  0  0
   -3.5472   -0.8918    0.7262 C   0  0  1  0  0  0  0  0  0  0  0  0
   -1.6145    2.1270    1.0205 C   0  0  0  0  0  0  0  0  0  0  0  0
   -3.2065   -2.3680    0.6187 C   0  0  0  0  0  0  0  0  0  0  0  0
    0.1211    0.2447   -0.0640 C   0  0  0  0  0  0  0  0  0  0  0  0
    2.3761   -0.9906   -0.4272 C   0  0  2  0  0  0  0  0  0  0  0  0
    0.9812   -0.6420   -0.9441 C   0  0  0  0  0  0  0  0  0  0  0  0
    3.3292    0.2000   -0.2422 C   0  0  1  0  0  0  0  0  0  0  0  0
    4.7255   -0.1483    0.3060 C   0  0  1  0  0  0  0  0  0  0  0  0
    5.5959    1.0969    0.4785 C   0  0  0  0  0  0  0  0  0  0  0  0
   -4.1682    1.6990    0.1564 H   0  0  0  0  0  0  0  0  0  0  0  0
   -3.4805   -0.7709   -1.4677 H   0  0  0  0  0  0  0  0  0  0  0  0
   -4.3270   -0.7574    1.4860 H   0  0  0  0  0  0  0  0  0  0  0  0
   -1.1381    2.8435    0.3428 H   0  0  0  0  0  0  0  0  0  0  0  0
   -0.9057    1.8620    1.8119 H   0  0  0  0  0  0  0  0  0  0  0  0
   -4.0630   -2.9451    0.2571 H   0  0  0  0  0  0  0  0  0  0  0  0
   -2.3537   -2.5243   -0.0504 H   0  0  0  0  0  0  0  0  0  0  0  0
   -2.8949    2.6821   -1.4924 H   0  0  0  0  0  0  0  0  0  0  0  0
    0.6437    1.1965    0.0642 H   0  0  0  0  0  0  0  0  0  0  0  0
    0.0199   -0.2695    0.8979 H   0  0  0  0  0  0  0  0  0  0  0  0
   -5.7700    0.1317   -0.0287 H   0  0  0  0  0  0  0  0  0  0  0  0
    2.2449   -1.5279    0.5182 H   0  0  0  0  0  0  0  0  0  0  0  0
    2.8642    0.8811    0.4819 H   0  0  0  0  0  0  0  0  0  0  0  0
   -2.3773    3.5501    2.0982 H   0  0  0  0  0  0  0  0  0  0  0  0
   -2.6237   -3.7904    1.8041 H   0  0  0  0  0  0  0  0  0  0  0  0
    5.2352   -0.8494   -0.3654 H   0  0  0  0  0  0  0  0  0  0  0  0
    5.1629    1.7763    1.2201 H   0  0  0  0  0  0  0  0  0  0  0  0
    5.7330    1.6289   -0.4675 H   0  0  0  0  0  0  0  0  0  0  0  0
    3.1536   -1.4169   -2.1669 H   0  0  0  0  0  0  0  0  0  0  0  0
    2.5725    1.2607   -1.7023 H   0  0  0  0  0  0  0  0  0  0  0  0
    5.5037   -0.9804    1.8928 H   0  0  0  0  0  0  0  0  0  0  0  0
    7.4058    1.5083    1.0609 H   0  0  0  0  0  0  0  0  0  0  0  0
  1 12  1  0  0  0  0
  1 15  1  0  0  0  0
  2 12  1  0  0  0  0
  2 18  1  0  0  0  0
  3 13  1  0  0  0  0
  3 31  1  0  0  0  0
  4 14  1  0  0  0  0
  4 34  1  0  0  0  0
  5 16  1  0  0  0  0
  5 37  1  0  0  0  0
  6 17  1  0  0  0  0
  6 38  1  0  0  0  0
  7 19  1  0  0  0  0
  7 42  1  0  0  0  0
  8 21  1  0  0  0  0
  8 43  1  0  0  0  0
  9 20  2  0  0  0  0
 10 22  1  0  0  0  0
 10 44  1  0  0  0  0
 11 23  1  0  0  0  0
 11 45  1  0  0  0  0
 12 13  1  0  0  0  0
 12 16  1  0  0  0  0
 13 14  1  0  0  0  0
 13 24  1  0  0  0  0
 14 15  1  0  0  0  0
 14 25  1  0  0  0  0
 15 17  1  0  0  0  0
 15 26  1  0  0  0  0
 16 27  1  0  0  0  0
 16 28  1  0  0  0  0
 17 29  1  0  0  0  0
 17 30  1  0  0  0  0
 18 20  1  0  0  0  0
 18 32  1  0  0  0  0
 18 33  1  0  0  0  0
 19 20  1  0  0  0  0
 19 21  1  0  0  0  0
 19 35  1  0  0  0  0
 21 22  1  0  0  0  0
 21 36  1  0  0  0  0
 22 23  1  0  0  0  0
 22 39  1  0  0  0  0
 23 40  1  0  0  0  0
 23 41  1  0  0  0  0
M  END
> <PUBCHEM_COMPOUND_CID>
21155828

> <PUBCHEM_CONFORMER_RMSD>
1

> <PUBCHEM_CONFORMER_DIVERSEORDER>
1
33
25
67
77
44
69
48
50
78
40
68
56
43
37
6
18
72
41
28
38
53
65
16
59
21
57
36
79
12
64
9
27
14
3
31
63
35
15
23
20
32
80
22
76
39
54
47
30
74
62
73
46
66
29
71
58
4
19
45
49
13
70
10
55
34
8
75
61
2
60
26
7
42
17
11
51
24
52
5

> <PUBCHEM_MMFF94_PARTIAL_CHARGES>
31
1 -0.56
10 -0.68
11 -0.68
12 0.56
13 0.28
14 0.28
15 0.28
16 0.28
17 0.28
18 0.34
19 0.34
2 -0.56
20 0.45
21 0.28
22 0.28
23 0.28
3 -0.68
31 0.4
34 0.4
37 0.4
38 0.4
4 -0.68
42 0.4
43 0.4
44 0.4
45 0.4
5 -0.68
6 -0.68
7 -0.68
8 -0.68
9 -0.57

> <PUBCHEM_EFFECTIVE_ROTOR_COUNT>
10

> <PUBCHEM_PHARMACOPHORE_FEATURES>
20
1 1 acceptor
1 10 acceptor
1 10 donor
1 11 acceptor
1 11 donor
1 2 acceptor
1 3 acceptor
1 3 donor
1 4 acceptor
1 4 donor
1 5 acceptor
1 5 donor
1 6 acceptor
1 6 donor
1 7 acceptor
1 7 donor
1 8 acceptor
1 8 donor
1 9 acceptor
5 1 12 13 14 15 rings

> <PUBCHEM_HEAVY_ATOM_COUNT>
23

> <PUBCHEM_ATOM_DEF_STEREO_COUNT>
7

> <PUBCHEM_ATOM_UDEF_STEREO_COUNT>
0

> <PUBCHEM_BOND_DEF_STEREO_COUNT>
0

> <PUBCHEM_BOND_UDEF_STEREO_COUNT>
0

> <PUBCHEM_ISOTOPIC_ATOM_COUNT>
0

> <PUBCHEM_COMPONENT_COUNT>
1

> <PUBCHEM_CACTVS_TAUTO_COUNT>
10

> <PUBCHEM_CONFORMER_ID>
0142CFF400000001

> <PUBCHEM_MMFF94_ENERGY>
59.0614

> <PUBCHEM_FEATURE_SELFOVERLAP>
101.603

> <PUBCHEM_SHAPE_FINGERPRINT>
10 15 18270669983568360832
10366900 7 18131346427403825634
10670039 82 18130519561350435220
10906281 52 18200892707536787241
11045977 3 18335418010908059922
11315181 36 18187085074568868688
11370993 70 18114177501928805987
11405975 8 17771356279110757386
121448 382 17894635867832236419
12507557 5 18409166623517342348
12523318 42 18114178678738964690
12596602 18 18187640354238259456
12633257 1 18113628858696038116
128620 24 17418375774831595564
13224815 77 17846785070167271460
13583140 156 18335692867203049680
13631057 29 18189054355307037923
15099037 37 18409173241871729631
15183329 4 12103571892364210568
15788980 27 15285360621863581734
16120349 306 17313373535566172682
17834072 8 10881395439440501094
17844677 252 17703518701321717524
19489759 90 18040428893271774548
20511986 3 17241025678705287906
21033648 29 17346307177541038968
21728266 224 18040712623238502971
23402539 116 15068333523383486766
23557571 272 18270420298926855205
23559900 14 18188764071389228737
26918003 58 18334011722060492543
469060 322 17702657916513619631
5104073 3 18200884950451220418
5924683 9 17894908567958743274
633830 44 14333141736487099870
67856867 119 17677336155299280588
90127 26 17774453685234188806
9709674 26 18271257005895935503
9981440 41 18271243824820768819

> <PUBCHEM_SHAPE_MULTIPOLES>
408.77
12.5
2.31
1.6
16.11
0.11
0.03
-1.01
-2.43
-2.46
-0.91
-0.28
0.21
1.03

> <PUBCHEM_SHAPE_SELFOVERLAP>
821.1

> <PUBCHEM_SHAPE_VOLUME>
239.3

> <PUBCHEM_COORDINATE_TYPE>
2
5
10