21225463
  -OEChem-05042113263D

 23 22  0     1  0  0  0  0  0999 V2000
   -0.4135   -1.9806   -0.7162 F   0  0  0  0  0  0  0  0  0  0  0  0
    1.3739   -1.5630    1.3664 O   0  0  0  0  0  0  0  0  0  0  0  0
    1.6241   -0.4877   -1.3021 O   0  0  0  0  0  0  0  0  0  0  0  0
    3.0367    1.9944   -0.4175 O   0  0  0  0  0  0  0  0  0  0  0  0
   -2.1554   -0.0673   -1.3348 O   0  0  0  0  0  0  0  0  0  0  0  0
   -3.1705    1.7828    0.3137 O   0  0  0  0  0  0  0  0  0  0  0  0
    0.5377   -0.5172    0.8695 C   0  0  1  0  0  0  0  0  0  0  0  0
    1.3115    0.3179   -0.1688 C   0  0  1  0  0  0  0  0  0  0  0  0
   -0.7438   -1.1393    0.3034 C   0  0  1  0  0  0  0  0  0  0  0  0
    2.6123    0.9018    0.3814 C   0  0  0  0  0  0  0  0  0  0  0  0
   -1.7455   -0.0985   -0.1750 C   0  0  0  0  0  0  0  0  0  0  0  0
   -2.2676    0.8567    0.8799 C   0  0  0  0  0  0  0  0  0  0  0  0
    0.2904    0.1159    1.7285 H   0  0  0  0  0  0  0  0  0  0  0  0
    0.6742    1.1346   -0.5276 H   0  0  0  0  0  0  0  0  0  0  0  0
   -1.2320   -1.7612    1.0613 H   0  0  0  0  0  0  0  0  0  0  0  0
    3.4136    0.1556    0.3846 H   0  0  0  0  0  0  0  0  0  0  0  0
    2.4658    1.2810    1.3977 H   0  0  0  0  0  0  0  0  0  0  0  0
    2.0912   -1.1539    1.8790 H   0  0  0  0  0  0  0  0  0  0  0  0
   -1.4400    1.4210    1.3139 H   0  0  0  0  0  0  0  0  0  0  0  0
   -2.7846    0.2828    1.6539 H   0  0  0  0  0  0  0  0  0  0  0  0
    2.1004    0.0736   -1.9377 H   0  0  0  0  0  0  0  0  0  0  0  0
    3.8609    2.3321   -0.0272 H   0  0  0  0  0  0  0  0  0  0  0  0
   -3.4949    2.3473    1.0360 H   0  0  0  0  0  0  0  0  0  0  0  0
  1  9  1  0  0  0  0
  2  7  1  0  0  0  0
  2 18  1  0  0  0  0
  3  8  1  0  0  0  0
  3 21  1  0  0  0  0
  4 10  1  0  0  0  0
  4 22  1  0  0  0  0
  5 11  2  0  0  0  0
  6 12  1  0  0  0  0
  6 23  1  0  0  0  0
  7  8  1  0  0  0  0
  7  9  1  0  0  0  0
  7 13  1  0  0  0  0
  8 10  1  0  0  0  0
  8 14  1  0  0  0  0
  9 11  1  0  0  0  0
  9 15  1  0  0  0  0
 10 16  1  0  0  0  0
 10 17  1  0  0  0  0
 11 12  1  0  0  0  0
 12 19  1  0  0  0  0
 12 20  1  0  0  0  0
M  END
> <PUBCHEM_COMPOUND_CID>
21225463

> <PUBCHEM_CONFORMER_RMSD>
1

> <PUBCHEM_CONFORMER_DIVERSEORDER>
1
4
42
51
23
67
46
53
68
8
64
3
74
15
37
47
24
5
6
27
60
73
17
12
43
33
69
61
48
49
41
31
20
30
28
66
29
62
7
14
58
45
39
18
70
19
77
2
10
16
25
32
57
52
65
22
55
34
59
38
21
79
26
63
35
40
44
72
9
13
75
71
50
56
36
54
78
11
76

> <PUBCHEM_MMFF94_PARTIAL_CHARGES>
16
1 -0.34
10 0.28
11 0.45
12 0.34
18 0.4
2 -0.68
21 0.4
22 0.4
23 0.4
3 -0.68
4 -0.68
5 -0.57
6 -0.68
7 0.28
8 0.28
9 0.4

> <PUBCHEM_EFFECTIVE_ROTOR_COUNT>
5

> <PUBCHEM_PHARMACOPHORE_FEATURES>
9
1 2 acceptor
1 2 donor
1 3 acceptor
1 3 donor
1 4 acceptor
1 4 donor
1 5 acceptor
1 6 acceptor
1 6 donor

> <PUBCHEM_HEAVY_ATOM_COUNT>
12

> <PUBCHEM_ATOM_DEF_STEREO_COUNT>
0

> <PUBCHEM_ATOM_UDEF_STEREO_COUNT>
3

> <PUBCHEM_BOND_DEF_STEREO_COUNT>
0

> <PUBCHEM_BOND_UDEF_STEREO_COUNT>
0

> <PUBCHEM_ISOTOPIC_ATOM_COUNT>
0

> <PUBCHEM_COMPONENT_COUNT>
1

> <PUBCHEM_CACTVS_TAUTO_COUNT>
4

> <PUBCHEM_CONFORMER_ID>
0143DFF700000001

> <PUBCHEM_MMFF94_ENERGY>
17.0621

> <PUBCHEM_FEATURE_SELFOVERLAP>
45.689

> <PUBCHEM_SHAPE_FINGERPRINT>
10857977 72 15140971621159258737
12423570 1 11217297014978626259
12716758 59 18130506452429096634
12897270 3 16845573157642890624
13299463 15 16415199043491290927
13839132 238 18339934812911606788
15310529 11 17489595583874298719
15775835 57 18335421261660622329
16945 1 17969769796620459410
170605 34 18410863143998922705
17357990 137 18270117890200253537
18342897 96 18343307002025790773
19837323 101 18201450219523236387
20653085 51 18340221768313968768
20828058 19 10953738962610733777
21524375 3 18411416202663727873
228727 97 18048864488266928735
23402539 116 18128803330139242255
305870 269 18333731295287793912
5084963 1 17821734939643522155

> <PUBCHEM_SHAPE_MULTIPOLES>
210.33
4.28
1.81
1.16
0.01
0.09
0.08
3.12
0.11
-0.19
-0.11
0.01
-0.28
-0.55

> <PUBCHEM_SHAPE_SELFOVERLAP>
402.1

> <PUBCHEM_SHAPE_VOLUME>
127.8

> <PUBCHEM_COORDINATE_TYPE>
2
5
10