21601248
  -OEChem-05042113263D

 26 25  0     1  0  0  0  0  0999 V2000
    0.5972    0.9686    1.4248 O   0  0  0  0  0  0  0  0  0  0  0  0
    1.7123   -1.6583    1.0949 O   0  0  0  0  0  0  0  0  0  0  0  0
    3.8217   -0.0666    0.7931 O   0  0  0  0  0  0  0  0  0  0  0  0
    4.2891    1.7339   -1.1244 O   0  0  0  0  0  0  0  0  0  0  0  0
   -1.2010   -1.3502   -0.7983 N   0  0  0  0  0  0  0  0  0  0  0  0
   -2.4000    1.2294   -0.3281 N   0  0  0  0  0  0  0  0  0  0  0  0
   -1.7834   -2.4339   -0.6475 N   0  3  0  0  0  0  0  0  0  0  0  0
   -3.3506    2.0110   -0.1517 N   0  3  0  0  0  0  0  0  0  0  0  0
   -2.3189   -3.4335   -0.5254 N   0  5  0  0  0  0  0  0  0  0  0  0
   -4.2208    2.7323    0.0019 N   0  5  0  0  0  0  0  0  0  0  0  0
    0.3787    0.1826    0.2449 C   0  0  2  0  0  0  0  0  0  0  0  0
   -0.9366   -0.5971    0.4420 C   0  0  1  0  0  0  0  0  0  0  0  0
    1.6118   -0.7120    0.0434 C   0  0  1  0  0  0  0  0  0  0  0  0
   -2.1681    0.2570    0.7440 C   0  0  0  0  0  0  0  0  0  0  0  0
    2.9246    0.0682   -0.0389 C   0  0  0  0  0  0  0  0  0  0  0  0
    3.0440    1.0685   -1.1747 C   0  0  0  0  0  0  0  0  0  0  0  0
    0.2730    0.8750   -0.5976 H   0  0  0  0  0  0  0  0  0  0  0  0
   -0.8118   -1.2846    1.2907 H   0  0  0  0  0  0  0  0  0  0  0  0
    1.5120   -1.2765   -0.8908 H   0  0  0  0  0  0  0  0  0  0  0  0
   -3.0526   -0.3837    0.8526 H   0  0  0  0  0  0  0  0  0  0  0  0
   -2.0282    0.7819    1.6972 H   0  0  0  0  0  0  0  0  0  0  0  0
    1.3103    1.6007    1.2339 H   0  0  0  0  0  0  0  0  0  0  0  0
    2.2562    1.8200   -1.0919 H   0  0  0  0  0  0  0  0  0  0  0  0
    2.9634    0.5352   -2.1258 H   0  0  0  0  0  0  0  0  0  0  0  0
    2.4166   -2.2861    0.8592 H   0  0  0  0  0  0  0  0  0  0  0  0
    4.3243    2.3366   -1.8866 H   0  0  0  0  0  0  0  0  0  0  0  0
  1 11  1  0  0  0  0
  1 22  1  0  0  0  0
  2 13  1  0  0  0  0
  2 25  1  0  0  0  0
  3 15  2  0  0  0  0
  4 16  1  0  0  0  0
  4 26  1  0  0  0  0
  5  7  2  0  0  0  0
  5 12  1  0  0  0  0
  6  8  2  0  0  0  0
  6 14  1  0  0  0  0
  7  9  2  0  0  0  0
  8 10  2  0  0  0  0
 11 12  1  0  0  0  0
 11 13  1  0  0  0  0
 11 17  1  0  0  0  0
 12 14  1  0  0  0  0
 12 18  1  0  0  0  0
 13 15  1  0  0  0  0
 13 19  1  0  0  0  0
 14 20  1  0  0  0  0
 14 21  1  0  0  0  0
 15 16  1  0  0  0  0
 16 23  1  0  0  0  0
 16 24  1  0  0  0  0
M  CHG  4   7   1   8   1   9  -1  10  -1
M  END
> <PUBCHEM_COMPOUND_CID>
21601248

> <PUBCHEM_CONFORMER_RMSD>
0.8

> <PUBCHEM_CONFORMER_DIVERSEORDER>
1
28
212
228
187
119
130
140
16
218
43
196
67
208
230
44
162
118
69
232
222
123
201
2
95
153
186
170
182
14
49
84
137
224
96
207
98
233
122
195
165
82
83
41
127
113
188
105
25
146
13
223
59
42
30
154
17
121
194
78
210
93
163
169
166
138
136
97
134
141
57
193
37
12
133
86
120
40
34
23
199
88
79
158
72
64
90
76
70
197
66
35
31
45
63
126
6
176
38
139
15
102
190
234
157
71
9
183
7
185
171
106
167
191
114
221
8
91
77
177
179
227
5
128
200
108
152
50
112
100
219
174
10
68
26
131
148
107
156
110
129
62
189
99
51
161
205
61
46
202
211
198
142
33
225
172
47
144
164
206
214
235
81
39
150
24
231
104
11
73
29
22
116
180
178
160
147
109
19
18
226
215
27
32
60
75
192
124
56
89
48
20
74
54
111
58
85
115
4
103
94
155
87
143
36
135
80
181
101
151
53
149
229
184
145
175
3
52
159
213
55
220
217
173
168
125
92
65
21
216
132
117
209
204
203

> <PUBCHEM_MMFF94_PARTIAL_CHARGES>
19
1 -0.68
10 -0.37
11 0.28
12 0.25
13 0.34
14 0.25
15 0.45
16 0.34
2 -0.68
22 0.4
25 0.4
26 0.4
3 -0.57
4 -0.68
5 -0.56
6 -0.56
7 0.69
8 0.69
9 -0.37

> <PUBCHEM_EFFECTIVE_ROTOR_COUNT>
7

> <PUBCHEM_PHARMACOPHORE_FEATURES>
7
1 1 acceptor
1 1 donor
1 2 acceptor
1 2 donor
1 3 acceptor
1 4 acceptor
1 4 donor

> <PUBCHEM_HEAVY_ATOM_COUNT>
16

> <PUBCHEM_ATOM_DEF_STEREO_COUNT>
3

> <PUBCHEM_ATOM_UDEF_STEREO_COUNT>
0

> <PUBCHEM_BOND_DEF_STEREO_COUNT>
0

> <PUBCHEM_BOND_UDEF_STEREO_COUNT>
0

> <PUBCHEM_ISOTOPIC_ATOM_COUNT>
0

> <PUBCHEM_COMPONENT_COUNT>
1

> <PUBCHEM_CACTVS_TAUTO_COUNT>
33

> <PUBCHEM_CONFORMER_ID>
01499BE000000001

> <PUBCHEM_MMFF94_ENERGY>
16.1922

> <PUBCHEM_FEATURE_SELFOVERLAP>
35.544

> <PUBCHEM_SHAPE_FINGERPRINT>
11206711 2 18128813221359455351
12138202 97 18202006516524954103
122479 349 18187933841494665585
12500047 106 18343012272959034498
12932764 1 18341620372963916240
14115302 16 18270677567873729402
15906896 17 18334018306773294043
1741750 31 18341895160428795929
18785283 64 17905337230159519435
20645476 183 18337955593144679439
20711985 344 18196916959179234971
20871999 31 18201444734665292333
21524375 3 18261952925875028313
23557571 272 18059289967717447896
23559900 14 18060417989944575338
23598291 2 18187358857417511718
298252 57 18339637824718608699
6049 1 17488747933618847874
7615 1 18041543841439092018
7832392 63 18334017202813653196
81228 2 18124289839824681043
81539 233 18050845521100645237
88987 49 18271230699220844610

> <PUBCHEM_SHAPE_MULTIPOLES>
275.91
6.97
2.91
1.07
1.85
1.3
-0.07
-4.92
1.31
-3.91
0.8
0.59
-0.02
-1.18

> <PUBCHEM_SHAPE_SELFOVERLAP>
535.071

> <PUBCHEM_SHAPE_VOLUME>
164.3

> <PUBCHEM_COORDINATE_TYPE>
2
5
10