24802139
  -OEChem-05042113263D

 30 30  0     1  0  0  0  0  0999 V2000
   -4.9509   -0.2751   -0.1479 P   0  0  0  0  0  0  0  0  0  0  0  0
    5.0632   -0.2897   -0.1107 P   0  0  0  0  0  0  0  0  0  0  0  0
    0.0554   -0.9893   -0.1064 O   0  0  0  0  0  0  0  0  0  0  0  0
   -1.0623   -0.2348    1.8128 O   0  0  0  0  0  0  0  0  0  0  0  0
   -1.1594    1.5260   -1.3476 O   0  0  0  0  0  0  0  0  0  0  0  0
    1.2897    1.4708    1.3143 O   0  0  0  0  0  0  0  0  0  0  0  0
   -3.4034    0.0899    0.3050 O   0  0  0  0  0  0  0  0  0  0  0  0
    3.5093    0.1222   -0.4927 O   0  0  0  0  0  0  0  0  0  0  0  0
   -5.7902    0.7942    0.5452 O   0  5  0  0  0  0  0  0  0  0  0  0
   -5.1855   -1.6868    0.3813 O   0  5  0  0  0  0  0  0  0  0  0  0
   -4.9435   -0.1668   -1.6699 O   0  0  0  0  0  0  0  0  0  0  0  0
    5.8940    0.8264   -0.7371 O   0  5  0  0  0  0  0  0  0  0  0  0
    5.2718   -1.6556   -0.7580 O   0  5  0  0  0  0  0  0  0  0  0  0
    5.0955   -0.3048    1.4147 O   0  0  0  0  0  0  0  0  0  0  0  0
   -0.7076    1.2611   -0.0251 C   0  0  1  0  0  0  0  0  0  0  0  0
   -1.0311   -0.1811    0.3839 C   0  0  1  0  0  0  0  0  0  0  0  0
    0.8108    1.2659   -0.0088 C   0  0  2  0  0  0  0  0  0  0  0  0
    1.1343   -0.1334   -0.5265 C   0  0  1  0  0  0  0  0  0  0  0  0
   -2.3436   -0.7208   -0.1707 C   0  0  0  0  0  0  0  0  0  0  0  0
    2.4535   -0.7182   -0.0559 C   0  0  0  0  0  0  0  0  0  0  0  0
   -1.1497    1.9943    0.6579 H   0  0  0  0  0  0  0  0  0  0  0  0
    1.2552    2.0314   -0.6533 H   0  0  0  0  0  0  0  0  0  0  0  0
    1.1116   -0.1173   -1.6238 H   0  0  0  0  0  0  0  0  0  0  0  0
   -2.5031   -1.7493    0.1725 H   0  0  0  0  0  0  0  0  0  0  0  0
   -2.3403   -0.7424   -1.2657 H   0  0  0  0  0  0  0  0  0  0  0  0
    2.5858   -1.7220   -0.4744 H   0  0  0  0  0  0  0  0  0  0  0  0
    2.4773   -0.8211    1.0343 H   0  0  0  0  0  0  0  0  0  0  0  0
   -1.5607   -1.0260    2.0773 H   0  0  0  0  0  0  0  0  0  0  0  0
   -0.8842    2.4309   -1.5737 H   0  0  0  0  0  0  0  0  0  0  0  0
    0.9992    2.3551    1.5953 H   0  0  0  0  0  0  0  0  0  0  0  0
  1  7  1  0  0  0  0
  1  9  1  0  0  0  0
  1 10  1  0  0  0  0
  1 11  2  0  0  0  0
  2  8  1  0  0  0  0
  2 12  1  0  0  0  0
  2 13  1  0  0  0  0
  2 14  2  0  0  0  0
  3 16  1  0  0  0  0
  3 18  1  0  0  0  0
  4 16  1  0  0  0  0
  4 28  1  0  0  0  0
  5 15  1  0  0  0  0
  5 29  1  0  0  0  0
  6 17  1  0  0  0  0
  6 30  1  0  0  0  0
  7 19  1  0  0  0  0
  8 20  1  0  0  0  0
 15 16  1  0  0  0  0
 15 17  1  0  0  0  0
 15 21  1  0  0  0  0
 16 19  1  0  0  0  0
 17 18  1  0  0  0  0
 17 22  1  0  0  0  0
 18 20  1  0  0  0  0
 18 23  1  0  0  0  0
 19 24  1  0  0  0  0
 19 25  1  0  0  0  0
 20 26  1  0  0  0  0
 20 27  1  0  0  0  0
M  CHG  4   9  -1  10  -1  12  -1  13  -1
M  END
> <PUBCHEM_COMPOUND_CID>
24802139

> <PUBCHEM_CONFORMER_RMSD>
0.8

> <PUBCHEM_CONFORMER_DIVERSEORDER>
1
84
48
13
78
6
47
71
41
81
77
73
59
67
27
31
74
14
62
38
35
83
30
55
5
60
23
51
70
64
80
75
52
36
22
32
46
21
72
65
44
28
20
33
11
82
66
50
57
39
7
19
79
9
76
12
69
45
58
37
25
63
3
54
26
2
56
10
18
68
42
49
16
15
53
43
61
40
4
17
29
34
8
24

> <PUBCHEM_MMFF94_PARTIAL_CHARGES>
23
1 1.37
10 -1.03
11 -1.03
12 -1.03
13 -1.03
14 -1.03
15 0.28
16 0.56
17 0.28
18 0.28
19 0.28
2 1.37
20 0.28
28 0.4
29 0.4
3 -0.56
30 0.4
4 -0.68
5 -0.68
6 -0.68
7 -0.55
8 -0.55
9 -1.03

> <PUBCHEM_EFFECTIVE_ROTOR_COUNT>
7

> <PUBCHEM_PHARMACOPHORE_FEATURES>
16
1 10 acceptor
1 11 acceptor
1 12 acceptor
1 13 acceptor
1 14 acceptor
1 3 acceptor
1 4 acceptor
1 4 donor
1 5 acceptor
1 5 donor
1 6 acceptor
1 6 donor
1 9 acceptor
4 1 9 10 11 anion
4 2 12 13 14 anion
5 3 15 16 17 18 rings

> <PUBCHEM_HEAVY_ATOM_COUNT>
20

> <PUBCHEM_ATOM_DEF_STEREO_COUNT>
3

> <PUBCHEM_ATOM_UDEF_STEREO_COUNT>
1

> <PUBCHEM_BOND_DEF_STEREO_COUNT>
0

> <PUBCHEM_BOND_UDEF_STEREO_COUNT>
0

> <PUBCHEM_ISOTOPIC_ATOM_COUNT>
0

> <PUBCHEM_COMPONENT_COUNT>
1

> <PUBCHEM_CACTVS_TAUTO_COUNT>
1

> <PUBCHEM_CONFORMER_ID>
017A735B00000001

> <PUBCHEM_MMFF94_ENERGY>
55.9424

> <PUBCHEM_FEATURE_SELFOVERLAP>
81.338

> <PUBCHEM_SHAPE_FINGERPRINT>
11045977 3 15410886392328723823
11401426 45 18411419518257141471
12236239 1 16343701045037403949
12592029 89 12901538036269064576
12815109 37 18411419514062322998
12916748 109 11818991872851476262
13288520 33 18272092682093177597
13533116 47 17703793570718445958
13862211 1 18409725166496636350
14251731 8 17967249797647750311
14251752 14 17531518798389552431
14251764 18 18272937116235684387
15048467 5 18060422387453081193
15788980 27 17275103951266500331
17834072 33 17417811763978930416
17834072 8 18408879642829784727
18186145 218 18114456847313368169
18222031 100 17417818344338365324
187816 3 17240485805700604137
200 152 18202003222142424556
20374829 77 18187643617727367739
220451 1 17458631102889888179
23402539 116 17313098657542838959
23536379 177 15864066559493697134
23557571 272 18339369552466312052
23559900 14 17677055745606165172
23622692 88 15123789591417207512
2916195 48 8934997049212671983
347723 3 16008466529623693237
4463277 17 18411141333162186476
5374978 207 18333446548142206512

> <PUBCHEM_SHAPE_MULTIPOLES>
348.86
13.45
1.36
1.16
1.79
0.08
0.13
-3.15
-1.25
0.04
-0.06
-0.12
0.13
0.21

> <PUBCHEM_SHAPE_SELFOVERLAP>
680.808

> <PUBCHEM_SHAPE_VOLUME>
211.5

> <PUBCHEM_COORDINATE_TYPE>
2
5
10