3081555
  -OEChem-05042113263D

 22 21  0     1  0  0  0  0  0999 V2000
   -4.6109   -0.3209   -0.0729 Cl  0  0  0  0  0  0  0  0  0  0  0  0
    4.2089   -1.3014    0.3517 Cl  0  0  0  0  0  0  0  0  0  0  0  0
   -0.3689    0.0178   -1.6400 O   0  0  0  0  0  0  0  0  0  0  0  0
   -2.1007   -0.2207    1.5743 O   0  0  0  0  0  0  0  0  0  0  0  0
    0.4262    1.9658    0.3929 O   0  0  0  0  0  0  0  0  0  0  0  0
    2.7262    1.0858   -0.5401 O   0  0  0  0  0  0  0  0  0  0  0  0
   -0.4822   -0.2197   -0.2329 C   0  0  2  0  0  0  0  0  0  0  0  0
   -1.9298    0.0953    0.1933 C   0  0  1  0  0  0  0  0  0  0  0  0
    0.6171    0.5644    0.5025 C   0  0  1  0  0  0  0  0  0  0  0  0
   -2.9545   -0.6771   -0.6342 C   0  0  0  0  0  0  0  0  0  0  0  0
    2.0141    0.2258   -0.0206 C   0  0  0  0  0  0  0  0  0  0  0  0
    2.4546   -1.2152    0.1260 C   0  0  0  0  0  0  0  0  0  0  0  0
   -0.3022   -1.2909   -0.0826 H   0  0  0  0  0  0  0  0  0  0  0  0
   -2.1211    1.1684    0.0735 H   0  0  0  0  0  0  0  0  0  0  0  0
    0.5932    0.3193    1.5705 H   0  0  0  0  0  0  0  0  0  0  0  0
   -2.8160   -1.7570   -0.5239 H   0  0  0  0  0  0  0  0  0  0  0  0
   -2.9050   -0.4186   -1.6954 H   0  0  0  0  0  0  0  0  0  0  0  0
   -0.4974    0.9707   -1.7871 H   0  0  0  0  0  0  0  0  0  0  0  0
   -1.9339   -1.1724    1.6838 H   0  0  0  0  0  0  0  0  0  0  0  0
    1.9899   -1.6633    1.0076 H   0  0  0  0  0  0  0  0  0  0  0  0
    2.1775   -1.7771   -0.7692 H   0  0  0  0  0  0  0  0  0  0  0  0
    1.0725    2.3972    0.9778 H   0  0  0  0  0  0  0  0  0  0  0  0
  1 10  1  0  0  0  0
  2 12  1  0  0  0  0
  3  7  1  0  0  0  0
  3 18  1  0  0  0  0
  4  8  1  0  0  0  0
  4 19  1  0  0  0  0
  5  9  1  0  0  0  0
  5 22  1  0  0  0  0
  6 11  2  0  0  0  0
  7  8  1  0  0  0  0
  7  9  1  0  0  0  0
  7 13  1  0  0  0  0
  8 10  1  0  0  0  0
  8 14  1  0  0  0  0
  9 11  1  0  0  0  0
  9 15  1  0  0  0  0
 10 16  1  0  0  0  0
 10 17  1  0  0  0  0
 11 12  1  0  0  0  0
 12 20  1  0  0  0  0
 12 21  1  0  0  0  0
M  END
> <PUBCHEM_COMPOUND_CID>
3081555

> <PUBCHEM_CONFORMER_RMSD>
0.6

> <PUBCHEM_CONFORMER_DIVERSEORDER>
1
54
105
122
76
52
123
102
85
133
90
98
125
35
60
61
67
19
10
48
131
132
2
114
53
95
46
5
115
39
7
30
9
66
57
113
59
129
116
99
37
64
62
44
23
97
87
38
130
8
73
89
13
101
79
106
43
78
16
34
96
92
55
11
108
31
50
21
107
69
83
84
103
24
41
71
119
72
6
88
33
18
120
74
28
12
49
110
117
109
20
128
124
22
80
42
100
75
4
3
118
91
77
112
65
121
47
94
82
126
40
51
25
56
17
104
93
68
36
27
14
63
127
32
70
26
111
45
86
58
81
15
29

> <PUBCHEM_MMFF94_PARTIAL_CHARGES>
15
1 -0.29
10 0.29
11 0.45
12 0.35
18 0.4
19 0.4
2 -0.29
22 0.4
3 -0.68
4 -0.68
5 -0.68
6 -0.57
7 0.28
8 0.28
9 0.34

> <PUBCHEM_EFFECTIVE_ROTOR_COUNT>
5

> <PUBCHEM_PHARMACOPHORE_FEATURES>
7
1 3 acceptor
1 3 donor
1 4 acceptor
1 4 donor
1 5 acceptor
1 5 donor
1 6 acceptor

> <PUBCHEM_HEAVY_ATOM_COUNT>
12

> <PUBCHEM_ATOM_DEF_STEREO_COUNT>
3

> <PUBCHEM_ATOM_UDEF_STEREO_COUNT>
0

> <PUBCHEM_BOND_DEF_STEREO_COUNT>
0

> <PUBCHEM_BOND_UDEF_STEREO_COUNT>
0

> <PUBCHEM_ISOTOPIC_ATOM_COUNT>
0

> <PUBCHEM_COMPONENT_COUNT>
1

> <PUBCHEM_CACTVS_TAUTO_COUNT>
5

> <PUBCHEM_CONFORMER_ID>
002F055300000001

> <PUBCHEM_MMFF94_ENERGY>
16.663

> <PUBCHEM_FEATURE_SELFOVERLAP>
35.536

> <PUBCHEM_SHAPE_FINGERPRINT>
10130415 120 18412543197655212816
12251169 10 16343408566897910442
124424 183 18411978036352881045
12897270 3 16153707609264377050
12932764 1 18202279255743834821
14251717 144 18410571773359974871
14252887 29 18060423482506594526
14993402 34 17775012331092549717
20201158 50 18040998401909542378
20279233 1 17385444340648786314
20645477 70 18334294262237013550
20671657 53 17895474718169072286
20711985 344 17460020791319675524
20871998 22 18059017159958366926
21119208 17 14634871920541740098
21293036 1 14923944539869679775
21501925 9 18272646831664053050
22485316 2 18411131454805938418
23402539 116 14261057758612888817
3248919 1 17822012037990484016
5084963 1 17846499270364260921
57812782 119 14405188365346946167

> <PUBCHEM_SHAPE_MULTIPOLES>
227.22
7.33
1.3
1.03
1.87
0.36
0.03
-3.1
-0.33
-1.01
-0.08
0.39
-0.02
-0.33

> <PUBCHEM_SHAPE_SELFOVERLAP>
413.634

> <PUBCHEM_SHAPE_VOLUME>
145.9

> <PUBCHEM_COORDINATE_TYPE>
2
5
10