3084489
  -OEChem-05042113263D

 25 25  0     1  0  0  0  0  0999 V2000
    0.6626    1.3219   -0.0697 O   0  0  0  0  0  0  0  0  0  0  0  0
    0.0693   -2.3172   -0.1161 O   0  0  0  0  0  0  0  0  0  0  0  0
   -2.6174   -1.2280   -0.0946 O   0  0  0  0  0  0  0  0  0  0  0  0
   -2.0492    1.2772   -1.0723 O   0  0  0  0  0  0  0  0  0  0  0  0
    3.2587    0.4795   -0.4152 O   0  0  0  0  0  0  0  0  0  0  0  0
    1.4110   -0.3816    1.4645 N   0  0  0  0  0  0  0  0  0  0  0  0
    0.9898   -0.0699    0.0908 C   0  0  1  0  0  0  0  0  0  0  0  0
   -0.2172   -0.9376   -0.3373 C   0  0  2  0  0  0  0  0  0  0  0  0
   -1.4852   -0.5320    0.4204 C   0  0  1  0  0  0  0  0  0  0  0  0
   -1.7276    0.9710    0.2868 C   0  0  1  0  0  0  0  0  0  0  0  0
   -0.4805    1.7554    0.6764 C   0  0  0  0  0  0  0  0  0  0  0  0
    2.1857   -0.3387   -0.8338 C   0  0  0  0  0  0  0  0  0  0  0  0
   -0.3965   -0.8274   -1.4141 H   0  0  0  0  0  0  0  0  0  0  0  0
   -1.4031   -0.8132    1.4765 H   0  0  0  0  0  0  0  0  0  0  0  0
   -2.5831    1.2840    0.8950 H   0  0  0  0  0  0  0  0  0  0  0  0
   -0.6195    2.8156    0.4394 H   0  0  0  0  0  0  0  0  0  0  0  0
   -0.2766    1.6832    1.7499 H   0  0  0  0  0  0  0  0  0  0  0  0
    1.9531   -0.0778   -1.8720 H   0  0  0  0  0  0  0  0  0  0  0  0
    2.5125   -1.3833   -0.8034 H   0  0  0  0  0  0  0  0  0  0  0  0
    1.7329   -1.3469    1.5196 H   0  0  0  0  0  0  0  0  0  0  0  0
    0.6251   -0.3087    2.1066 H   0  0  0  0  0  0  0  0  0  0  0  0
    0.1112   -2.4646    0.8438 H   0  0  0  0  0  0  0  0  0  0  0  0
   -3.3946   -0.9417    0.4150 H   0  0  0  0  0  0  0  0  0  0  0  0
   -2.8295    0.7487   -1.3120 H   0  0  0  0  0  0  0  0  0  0  0  0
    2.9582    1.4036   -0.4535 H   0  0  0  0  0  0  0  0  0  0  0  0
  1  7  1  0  0  0  0
  1 11  1  0  0  0  0
  2  8  1  0  0  0  0
  2 22  1  0  0  0  0
  3  9  1  0  0  0  0
  3 23  1  0  0  0  0
  4 10  1  0  0  0  0
  4 24  1  0  0  0  0
  5 12  1  0  0  0  0
  5 25  1  0  0  0  0
  6  7  1  0  0  0  0
  6 20  1  0  0  0  0
  6 21  1  0  0  0  0
  7  8  1  0  0  0  0
  7 12  1  0  0  0  0
  8  9  1  0  0  0  0
  8 13  1  0  0  0  0
  9 10  1  0  0  0  0
  9 14  1  0  0  0  0
 10 11  1  0  0  0  0
 10 15  1  0  0  0  0
 11 16  1  0  0  0  0
 11 17  1  0  0  0  0
 12 18  1  0  0  0  0
 12 19  1  0  0  0  0
M  END
> <PUBCHEM_COMPOUND_CID>
3084489

> <PUBCHEM_CONFORMER_RMSD>
0.6

> <PUBCHEM_CONFORMER_DIVERSEORDER>
1
3
2

> <PUBCHEM_MMFF94_PARTIAL_CHARGES>
18
1 -0.56
10 0.28
11 0.28
12 0.28
2 -0.68
20 0.36
21 0.36
22 0.4
23 0.4
24 0.4
25 0.4
3 -0.68
4 -0.68
5 -0.68
6 -0.99
7 0.55
8 0.28
9 0.28

> <PUBCHEM_EFFECTIVE_ROTOR_COUNT>
2.2

> <PUBCHEM_PHARMACOPHORE_FEATURES>
12
1 1 acceptor
1 2 acceptor
1 2 donor
1 3 acceptor
1 3 donor
1 4 acceptor
1 4 donor
1 5 acceptor
1 5 donor
1 6 cation
1 6 donor
6 1 7 8 9 10 11 rings

> <PUBCHEM_HEAVY_ATOM_COUNT>
12

> <PUBCHEM_ATOM_DEF_STEREO_COUNT>
4

> <PUBCHEM_ATOM_UDEF_STEREO_COUNT>
0

> <PUBCHEM_BOND_DEF_STEREO_COUNT>
0

> <PUBCHEM_BOND_UDEF_STEREO_COUNT>
0

> <PUBCHEM_ISOTOPIC_ATOM_COUNT>
0

> <PUBCHEM_COMPONENT_COUNT>
1

> <PUBCHEM_CACTVS_TAUTO_COUNT>
1

> <PUBCHEM_CONFORMER_ID>
002F10C900000001

> <PUBCHEM_MMFF94_ENERGY>
31.1005

> <PUBCHEM_FEATURE_SELFOVERLAP>
60.927

> <PUBCHEM_SHAPE_FINGERPRINT>
11206711 2 18409445912291824589
12423570 1 12721109883131648409
12716758 59 18411989039884955054
12897270 3 18341620256841686452
13024252 1 15864362401273240904
15310529 11 17168428168734388121
15775835 57 17967821517866497852
161256 15 18122903402389802385
16945 1 17749962161992774418
20653085 51 17750256762780010028
21040471 1 18052253999194772569
21922407 69 16371021701522056113
22802520 49 17843706377596053246
23235685 24 18268996397114686953
23552423 10 18191595159375426854
241688 4 17760087714949579603
2748010 2 18340479088379061785
29004967 10 15554173575487464950
369184 2 17095250202349139456
5084963 1 18060424654747465907
528886 8 18270971149857001089

> <PUBCHEM_SHAPE_MULTIPOLES>
212.63
3.33
1.81
0.96
1.21
0.31
-0.12
-0.18
0.66
-0.62
-0.02
0.13
-0.1
0.07

> <PUBCHEM_SHAPE_SELFOVERLAP>
425.819

> <PUBCHEM_SHAPE_VOLUME>
123.8

> <PUBCHEM_COORDINATE_TYPE>
2
5
10