348012
  -OEChem-05042113263D

 38 40  0     1  0  0  0  0  0999 V2000
    0.2155   -1.3246   -0.2757 O   0  0  0  0  0  0  0  0  0  0  0  0
   -2.0410   -0.1227   -1.2617 O   0  0  0  0  0  0  0  0  0  0  0  0
    1.0050    1.0487    1.1105 O   0  0  0  0  0  0  0  0  0  0  0  0
    2.3860   -0.5215    0.0695 O   0  0  0  0  0  0  0  0  0  0  0  0
   -1.9920    0.4625    1.0059 O   0  0  0  0  0  0  0  0  0  0  0  0
    3.2335    2.2038   -0.0525 O   0  0  0  0  0  0  0  0  0  0  0  0
    0.3726   -0.0743   -0.9583 C   0  0  1  0  0  0  0  0  0  0  0  0
   -0.9193    0.7355   -1.0112 C   0  0  2  0  0  0  0  0  0  0  0  0
    1.4847    0.5793   -0.1542 C   0  0  1  0  0  0  0  0  0  0  0  0
   -1.2620    1.4518    0.2756 C   0  0  2  0  0  0  0  0  0  0  0  0
   -0.0689    1.9794    1.0493 C   0  0  0  0  0  0  0  0  0  0  0  0
    1.5423   -1.6817    0.1376 C   0  0  0  0  0  0  0  0  0  0  0  0
   -2.7448   -0.2212   -0.0101 C   0  0  0  0  0  0  0  0  0  0  0  0
    2.2372    1.6685   -0.9060 C   0  0  0  0  0  0  0  0  0  0  0  0
    1.4865   -2.1941    1.5711 C   0  0  0  0  0  0  0  0  0  0  0  0
    2.0997   -2.7443   -0.8025 C   0  0  0  0  0  0  0  0  0  0  0  0
   -2.9184   -1.6820    0.3872 C   0  0  0  0  0  0  0  0  0  0  0  0
   -4.1166    0.4369   -0.1746 C   0  0  0  0  0  0  0  0  0  0  0  0
    0.6913   -0.3240   -1.9786 H   0  0  0  0  0  0  0  0  0  0  0  0
   -0.8377    1.4651   -1.8252 H   0  0  0  0  0  0  0  0  0  0  0  0
   -1.9533    2.2828    0.0891 H   0  0  0  0  0  0  0  0  0  0  0  0
    0.2943    2.9145    0.6108 H   0  0  0  0  0  0  0  0  0  0  0  0
   -0.3602    2.1951    2.0826 H   0  0  0  0  0  0  0  0  0  0  0  0
    1.5786    2.4857   -1.2136 H   0  0  0  0  0  0  0  0  0  0  0  0
    2.7346    1.2607   -1.7924 H   0  0  0  0  0  0  0  0  0  0  0  0
    2.4862   -2.4386    1.9448 H   0  0  0  0  0  0  0  0  0  0  0  0
    1.0680   -1.4338    2.2398 H   0  0  0  0  0  0  0  0  0  0  0  0
    0.8451   -3.0780    1.6516 H   0  0  0  0  0  0  0  0  0  0  0  0
    3.1171   -3.0321   -0.5175 H   0  0  0  0  0  0  0  0  0  0  0  0
    1.4633   -3.6353   -0.8166 H   0  0  0  0  0  0  0  0  0  0  0  0
    2.1489   -2.3656   -1.8298 H   0  0  0  0  0  0  0  0  0  0  0  0
   -3.4230   -2.2506   -0.4009 H   0  0  0  0  0  0  0  0  0  0  0  0
   -3.4896   -1.7724    1.3174 H   0  0  0  0  0  0  0  0  0  0  0  0
   -1.9535   -2.1643    0.5661 H   0  0  0  0  0  0  0  0  0  0  0  0
   -4.7162   -0.0854   -0.9280 H   0  0  0  0  0  0  0  0  0  0  0  0
   -4.0229    1.4747   -0.5118 H   0  0  0  0  0  0  0  0  0  0  0  0
   -4.6641    0.4524    0.7737 H   0  0  0  0  0  0  0  0  0  0  0  0
    3.7026    2.8916   -0.5550 H   0  0  0  0  0  0  0  0  0  0  0  0
  1  7  1  0  0  0  0
  1 12  1  0  0  0  0
  2  8  1  0  0  0  0
  2 13  1  0  0  0  0
  3  9  1  0  0  0  0
  3 11  1  0  0  0  0
  4  9  1  0  0  0  0
  4 12  1  0  0  0  0
  5 10  1  0  0  0  0
  5 13  1  0  0  0  0
  6 14  1  0  0  0  0
  6 38  1  0  0  0  0
  7  8  1  0  0  0  0
  7  9  1  0  0  0  0
  7 19  1  0  0  0  0
  8 10  1  0  0  0  0
  8 20  1  0  0  0  0
  9 14  1  0  0  0  0
 10 11  1  0  0  0  0
 10 21  1  0  0  0  0
 11 22  1  0  0  0  0
 11 23  1  0  0  0  0
 12 15  1  0  0  0  0
 12 16  1  0  0  0  0
 13 17  1  0  0  0  0
 13 18  1  0  0  0  0
 14 24  1  0  0  0  0
 14 25  1  0  0  0  0
 15 26  1  0  0  0  0
 15 27  1  0  0  0  0
 15 28  1  0  0  0  0
 16 29  1  0  0  0  0
 16 30  1  0  0  0  0
 16 31  1  0  0  0  0
 17 32  1  0  0  0  0
 17 33  1  0  0  0  0
 17 34  1  0  0  0  0
 18 35  1  0  0  0  0
 18 36  1  0  0  0  0
 18 37  1  0  0  0  0
M  END
> <PUBCHEM_COMPOUND_CID>
348012

> <PUBCHEM_CONFORMER_RMSD>
0.6

> <PUBCHEM_CONFORMER_DIVERSEORDER>
9
3
15
1
7
13
10
12
22
20
2
23
5
21
8
18
19
4
17
24
16
14
11
25
6

> <PUBCHEM_MMFF94_PARTIAL_CHARGES>
15
1 -0.56
10 0.28
11 0.28
12 0.56
13 0.56
14 0.28
2 -0.56
3 -0.56
38 0.4
4 -0.56
5 -0.56
6 -0.68
7 0.28
8 0.28
9 0.56

> <PUBCHEM_EFFECTIVE_ROTOR_COUNT>
2.6

> <PUBCHEM_PHARMACOPHORE_FEATURES>
12
1 1 acceptor
1 2 acceptor
1 3 acceptor
1 4 acceptor
1 5 acceptor
1 6 acceptor
1 6 donor
3 12 15 16 hydrophobe
3 13 17 18 hydrophobe
5 1 4 7 9 12 rings
5 2 5 8 10 13 rings
6 3 7 8 9 10 11 rings

> <PUBCHEM_HEAVY_ATOM_COUNT>
18

> <PUBCHEM_ATOM_DEF_STEREO_COUNT>
0

> <PUBCHEM_ATOM_UDEF_STEREO_COUNT>
4

> <PUBCHEM_BOND_DEF_STEREO_COUNT>
0

> <PUBCHEM_BOND_UDEF_STEREO_COUNT>
0

> <PUBCHEM_ISOTOPIC_ATOM_COUNT>
0

> <PUBCHEM_COMPONENT_COUNT>
1

> <PUBCHEM_CACTVS_TAUTO_COUNT>
1

> <PUBCHEM_CONFORMER_ID>
00054F6C00000009

> <PUBCHEM_MMFF94_ENERGY>
61.1891

> <PUBCHEM_FEATURE_SELFOVERLAP>
61.494

> <PUBCHEM_SHAPE_FINGERPRINT>
108231 29 17910406308995968385
10863032 1 18410299146199919235
10948715 1 18117278274931914464
10980938 120 18343579659724364303
11578080 2 17387688306716405044
12423570 1 14502099436225593948
12592029 89 18040427811625760064
12716301 132 17760921140721778464
14787075 74 17623577849003698509
15001771 113 18123758560290063886
15076042 46 17770501936974356425
15775835 57 18271245031510971461
16945 1 18337679624278904694
17990270 104 18267584602551478574
19868273 325 17905614293856625094
20511035 2 17700121110990755556
20559304 39 18059289872763664175
20645476 183 17829054547806529660
20645477 70 18409726249503407599
21501502 16 18270121206411228641
21524375 3 18191584375012902244
22344851 341 18261111915243540634
23559900 14 18268988691816731407
23728640 28 15592705638128739490
2748010 2 16179041830310418190
34934 24 18131068268532458501
44249140 249 18260542316474997509
528862 383 18409442587823671684
568465 68 17903941167892432457
5845 1 12551477572816615862
7364860 26 18341334413999189398
81228 2 17261014538300247160

> <PUBCHEM_SHAPE_MULTIPOLES>
335.22
4.88
2.65
1.2
3.35
0.65
0.14
0.31
-0.3
-2.19
0.31
-0.17
0.1
-0.13

> <PUBCHEM_SHAPE_SELFOVERLAP>
711.889

> <PUBCHEM_SHAPE_VOLUME>
187.4

> <PUBCHEM_COORDINATE_TYPE>
2
5
10