42609786
  -OEChem-05042113263D

 32 32  0     1  0  0  0  0  0999 V2000
   -4.1685    1.2664   -0.1623 P   0  0  2  0  0  0  0  0  0  0  0  0
    4.1847    1.3939    0.0423 P   0  0  2  0  0  0  0  0  0  0  0  0
    0.4214   -0.4930    0.9663 O   0  0  0  0  0  0  0  0  0  0  0  0
   -1.4959   -1.7597    1.4520 O   0  0  0  0  0  0  0  0  0  0  0  0
   -0.5756   -0.6295   -1.8823 O   0  0  0  0  0  0  0  0  0  0  0  0
    0.3414   -3.5179    0.0352 O   0  0  0  0  0  0  0  0  0  0  0  0
   -3.0401    0.0938    0.0000 O   0  0  0  0  0  0  0  0  0  0  0  0
    3.0423    0.3378    0.5455 O   0  0  0  0  0  0  0  0  0  0  0  0
   -4.4007    1.6397    1.4117 O   0  0  0  0  0  0  0  0  0  0  0  0
    5.3269    0.3392   -0.4614 O   0  0  0  0  0  0  0  0  0  0  0  0
   -5.4404    0.6375   -0.6883 O   0  5  0  0  0  0  0  0  0  0  0  0
   -3.5628    2.4665   -0.8574 O   0  0  0  0  0  0  0  0  0  0  0  0
    4.7237    2.1277    1.2512 O   0  5  0  0  0  0  0  0  0  0  0  0
    3.6773    2.1636   -1.1579 O   0  0  0  0  0  0  0  0  0  0  0  0
   -0.9053   -0.8362    0.5337 C   0  0  2  0  0  0  0  0  0  0  0  0
   -0.7257   -1.5486   -0.8087 C   0  0  2  0  0  0  0  0  0  0  0  0
    0.5925   -2.2754   -0.6165 C   0  0  1  0  0  0  0  0  0  0  0  0
    1.3754   -1.3590    0.3223 C   0  0  1  0  0  0  0  0  0  0  0  0
   -1.7505    0.4300    0.4803 C   0  0  0  0  0  0  0  0  0  0  0  0
    2.3798   -0.4770   -0.4059 C   0  0  0  0  0  0  0  0  0  0  0  0
   -1.5586   -2.2245   -1.0312 H   0  0  0  0  0  0  0  0  0  0  0  0
    1.1226   -2.4858   -1.5508 H   0  0  0  0  0  0  0  0  0  0  0  0
    1.8828   -1.9173    1.1174 H   0  0  0  0  0  0  0  0  0  0  0  0
   -1.2925    1.1874   -0.1649 H   0  0  0  0  0  0  0  0  0  0  0  0
   -1.8447    0.8681    1.4803 H   0  0  0  0  0  0  0  0  0  0  0  0
    1.8763    0.1788   -1.1229 H   0  0  0  0  0  0  0  0  0  0  0  0
    3.1165   -1.0886   -0.9358 H   0  0  0  0  0  0  0  0  0  0  0  0
   -1.8896   -1.2542    2.1826 H   0  0  0  0  0  0  0  0  0  0  0  0
   -0.4251   -1.1469   -2.6918 H   0  0  0  0  0  0  0  0  0  0  0  0
    1.2017   -3.9454    0.1869 H   0  0  0  0  0  0  0  0  0  0  0  0
   -5.1142    2.2730    1.6402 H   0  0  0  0  0  0  0  0  0  0  0  0
    6.1976    0.6936   -0.7415 H   0  0  0  0  0  0  0  0  0  0  0  0
  1  7  1  0  0  0  0
  1  9  1  0  0  0  0
  1 11  1  0  0  0  0
  1 12  2  0  0  0  0
  2  8  1  0  0  0  0
  2 10  1  0  0  0  0
  2 13  1  0  0  0  0
  2 14  2  0  0  0  0
  3 15  1  0  0  0  0
  3 18  1  0  0  0  0
  4 15  1  0  0  0  0
  4 28  1  0  0  0  0
  5 16  1  0  0  0  0
  5 29  1  0  0  0  0
  6 17  1  0  0  0  0
  6 30  1  0  0  0  0
  7 19  1  0  0  0  0
  8 20  1  0  0  0  0
  9 31  1  0  0  0  0
 10 32  1  0  0  0  0
 15 16  1  0  0  0  0
 15 19  1  0  0  0  0
 16 17  1  0  0  0  0
 16 21  1  0  0  0  0
 17 18  1  0  0  0  0
 17 22  1  0  0  0  0
 18 20  1  0  0  0  0
 18 23  1  0  0  0  0
 19 24  1  0  0  0  0
 19 25  1  0  0  0  0
 20 26  1  0  0  0  0
 20 27  1  0  0  0  0
M  CHG  2  11  -1  13  -1
M  END
> <PUBCHEM_COMPOUND_CID>
42609786

> <PUBCHEM_CONFORMER_RMSD>
0.8

> <PUBCHEM_CONFORMER_DIVERSEORDER>
1
21
70
85
88
27
10
80
34
28
58
33
60
24
59
39
30
86
13
71
44
55
43
66
82
16
29
77
68
47
31
11
74
73
51
50
36
53
78
19
17
57
56
37
2
54
38
76
61
46
65
23
83
81
3
49
6
87
48
42
67
40
41
9
35
25
62
12
69
75
64
79
26
52
14
22
63
20
7
72
5
45
4
15
84
18
8
32

> <PUBCHEM_MMFF94_PARTIAL_CHARGES>
25
1 1.44
10 -0.77
11 -0.95
12 -0.95
13 -0.95
14 -0.95
15 0.56
16 0.28
17 0.28
18 0.28
19 0.28
2 1.44
20 0.28
28 0.4
29 0.4
3 -0.56
30 0.4
31 0.5
32 0.5
4 -0.68
5 -0.68
6 -0.68
7 -0.55
8 -0.55
9 -0.77

> <PUBCHEM_EFFECTIVE_ROTOR_COUNT>
7

> <PUBCHEM_PHARMACOPHORE_FEATURES>
16
1 10 acceptor
1 11 acceptor
1 12 acceptor
1 13 acceptor
1 14 acceptor
1 3 acceptor
1 4 acceptor
1 4 donor
1 5 acceptor
1 5 donor
1 6 acceptor
1 6 donor
1 9 acceptor
4 1 9 11 12 anion
4 2 10 13 14 anion
5 3 15 16 17 18 rings

> <PUBCHEM_HEAVY_ATOM_COUNT>
20

> <PUBCHEM_ATOM_DEF_STEREO_COUNT>
4

> <PUBCHEM_ATOM_UDEF_STEREO_COUNT>
0

> <PUBCHEM_BOND_DEF_STEREO_COUNT>
0

> <PUBCHEM_BOND_UDEF_STEREO_COUNT>
0

> <PUBCHEM_ISOTOPIC_ATOM_COUNT>
0

> <PUBCHEM_COMPONENT_COUNT>
1

> <PUBCHEM_CACTVS_TAUTO_COUNT>
1

> <PUBCHEM_CONFORMER_ID>
028A2C7A00000001

> <PUBCHEM_MMFF94_ENERGY>
7.2977

> <PUBCHEM_FEATURE_SELFOVERLAP>
81.333

> <PUBCHEM_SHAPE_FINGERPRINT>
11796584 16 11455886940875991093
12173636 292 18268144451971210950
122479 349 18334296504467924290
12596602 18 15140973867195747652
12633257 1 16588018056879902288
12969540 114 18343291574471569717
13544653 18 8574709096223740632
14123255 52 18412259549657249680
14142880 1 18044082669332155406
14251764 30 13110671809661709309
15061688 2 18335419054226455411
15163728 17 18268453315511055268
15342168 16 18261113010491564092
15534591 1 18339919411058831846
15885798 251 8502376645737835267
1741750 31 18340487863070860410
17834072 32 18341053016453599040
18785283 64 18189053101635626906
19784866 34 18343864398707571113
20645477 56 18127697234832906128
20871998 22 9151164338063394438
21250096 35 9511461117199199405
21524375 3 18413670201463823174
22620623 9 16342842404134957231
23227448 37 18335422434223533125
23559900 14 18042417841071594538
2838139 119 18343295951048733236
4028521 119 17988926716771222504
43658 37 18343297076461598440
474 4 18409169887570732765
56616090 284 14764627529602746703
633830 44 18059300842453042743
81539 233 18339642239612951935

> <PUBCHEM_SHAPE_MULTIPOLES>
348.86
9.94
2.9
1.23
0.5
1
0.04
-10.21
0.13
0.54
0.08
-0.23
-0.11
0.3

> <PUBCHEM_SHAPE_SELFOVERLAP>
677.945

> <PUBCHEM_SHAPE_VOLUME>
212.4

> <PUBCHEM_COORDINATE_TYPE>
2
5
10