46937007
  -OEChem-05042113263D

 34 34  0     1  0  0  0  0  0999 V2000
   -4.9175    0.2344    0.0730 P   0  0  0  0  0  0  0  0  0  0  0  0
    5.0266    0.2446    0.1658 P   0  0  0  0  0  0  0  0  0  0  0  0
    0.0546    0.9460    0.0718 O   0  0  0  0  0  0  0  0  0  0  0  0
   -1.0399    0.1240   -1.8329 O   0  0  0  0  0  0  0  0  0  0  0  0
   -1.1772   -1.5231    1.3868 O   0  0  0  0  0  0  0  0  0  0  0  0
    1.3046   -1.5634   -1.2452 O   0  0  0  0  0  0  0  0  0  0  0  0
   -3.3997   -0.1461   -0.3434 O   0  0  0  0  0  0  0  0  0  0  0  0
    3.5028   -0.1519    0.5400 O   0  0  0  0  0  0  0  0  0  0  0  0
   -4.8375    0.3285    1.6853 O   0  0  0  0  0  0  0  0  0  0  0  0
   -5.0647    1.7789   -0.3829 O   0  0  0  0  0  0  0  0  0  0  0  0
    5.1495    1.7861    0.6386 O   0  0  0  0  0  0  0  0  0  0  0  0
    4.9849    0.3525   -1.4472 O   0  0  0  0  0  0  0  0  0  0  0  0
   -5.9712   -0.6940   -0.4562 O   0  0  0  0  0  0  0  0  0  0  0  0
    6.0750   -0.6797    0.7123 O   0  0  0  0  0  0  0  0  0  0  0  0
   -1.0264    0.1213   -0.4028 C   0  0  1  0  0  0  0  0  0  0  0  0
   -0.7090   -1.3055    0.0613 C   0  0  1  0  0  0  0  0  0  0  0  0
    0.8095   -1.3113    0.0638 C   0  0  2  0  0  0  0  0  0  0  0  0
    1.1277    0.1054    0.5353 C   0  0  1  0  0  0  0  0  0  0  0  0
   -2.3452    0.6807    0.1160 C   0  0  0  0  0  0  0  0  0  0  0  0
    2.4529    0.6727    0.0605 C   0  0  0  0  0  0  0  0  0  0  0  0
   -1.1431   -2.0626   -0.6006 H   0  0  0  0  0  0  0  0  0  0  0  0
    1.2454   -2.0537    0.7405 H   0  0  0  0  0  0  0  0  0  0  0  0
    1.0914    0.1283    1.6321 H   0  0  0  0  0  0  0  0  0  0  0  0
   -2.3487    0.7424    1.2094 H   0  0  0  0  0  0  0  0  0  0  0  0
   -2.4938    1.6969   -0.2664 H   0  0  0  0  0  0  0  0  0  0  0  0
    2.5749    1.6910    0.4456 H   0  0  0  0  0  0  0  0  0  0  0  0
    2.4836    0.7380   -1.0324 H   0  0  0  0  0  0  0  0  0  0  0  0
   -1.5346    0.9053   -2.1316 H   0  0  0  0  0  0  0  0  0  0  0  0
   -0.9055   -2.4194    1.6483 H   0  0  0  0  0  0  0  0  0  0  0  0
    1.0169   -2.4572   -1.4980 H   0  0  0  0  0  0  0  0  0  0  0  0
   -5.6653    0.4608    2.1946 H   0  0  0  0  0  0  0  0  0  0  0  0
   -5.9368    2.2189   -0.2941 H   0  0  0  0  0  0  0  0  0  0  0  0
    6.0195    2.2345    0.5738 H   0  0  0  0  0  0  0  0  0  0  0  0
    5.8236    0.4962   -1.9351 H   0  0  0  0  0  0  0  0  0  0  0  0
  1  7  1  0  0  0  0
  1  9  1  0  0  0  0
  1 10  1  0  0  0  0
  1 13  2  0  0  0  0
  2  8  1  0  0  0  0
  2 11  1  0  0  0  0
  2 12  1  0  0  0  0
  2 14  2  0  0  0  0
  3 15  1  0  0  0  0
  3 18  1  0  0  0  0
  4 15  1  0  0  0  0
  4 28  1  0  0  0  0
  5 16  1  0  0  0  0
  5 29  1  0  0  0  0
  6 17  1  0  0  0  0
  6 30  1  0  0  0  0
  7 19  1  0  0  0  0
  8 20  1  0  0  0  0
  9 31  1  0  0  0  0
 10 32  1  0  0  0  0
 11 33  1  0  0  0  0
 12 34  1  0  0  0  0
 15 16  1  0  0  0  0
 15 19  1  0  0  0  0
 16 17  1  0  0  0  0
 16 21  1  0  0  0  0
 17 18  1  0  0  0  0
 17 22  1  0  0  0  0
 18 20  1  0  0  0  0
 18 23  1  0  0  0  0
 19 24  1  0  0  0  0
 19 25  1  0  0  0  0
 20 26  1  0  0  0  0
 20 27  1  0  0  0  0
M  END
> <PUBCHEM_COMPOUND_CID>
46937007

> <PUBCHEM_CONFORMER_RMSD>
0.8

> <PUBCHEM_CONFORMER_DIVERSEORDER>
1
50
53
38
36
8
29
57
9
32
34
54
28
45
48
37
41
18
55
12
44
7
47
14
58
21
43
46
49
40
52
16
2
13
19
31
23
56
4
51
6
33
42
5
10
35
27
24
30
39
59
22
26
11
20
15
17
25
3

> <PUBCHEM_MMFF94_PARTIAL_CHARGES>
27
1 1.51
10 -0.77
11 -0.77
12 -0.77
13 -0.7
14 -0.7
15 0.56
16 0.28
17 0.28
18 0.28
19 0.28
2 1.51
20 0.28
28 0.4
29 0.4
3 -0.56
30 0.4
31 0.5
32 0.5
33 0.5
34 0.5
4 -0.68
5 -0.68
6 -0.68
7 -0.55
8 -0.55
9 -0.77

> <PUBCHEM_EFFECTIVE_ROTOR_COUNT>
7

> <PUBCHEM_PHARMACOPHORE_FEATURES>
16
1 10 acceptor
1 11 acceptor
1 12 acceptor
1 13 acceptor
1 14 acceptor
1 3 acceptor
1 4 acceptor
1 4 donor
1 5 acceptor
1 5 donor
1 6 acceptor
1 6 donor
1 9 acceptor
4 1 9 10 13 anion
4 2 11 12 14 anion
5 3 15 16 17 18 rings

> <PUBCHEM_HEAVY_ATOM_COUNT>
20

> <PUBCHEM_ATOM_DEF_STEREO_COUNT>
4

> <PUBCHEM_ATOM_UDEF_STEREO_COUNT>
0

> <PUBCHEM_BOND_DEF_STEREO_COUNT>
0

> <PUBCHEM_BOND_UDEF_STEREO_COUNT>
0

> <PUBCHEM_ISOTOPIC_ATOM_COUNT>
0

> <PUBCHEM_COMPONENT_COUNT>
1

> <PUBCHEM_CACTVS_TAUTO_COUNT>
1

> <PUBCHEM_CONFORMER_ID>
02CC33AF00000001

> <PUBCHEM_MMFF94_ENERGY>
-22.4763

> <PUBCHEM_FEATURE_SELFOVERLAP>
81.324

> <PUBCHEM_SHAPE_FINGERPRINT>
11045977 3 15791739632299246576
12236239 1 16343989091340529194
12592029 89 17560805398887248670
12815109 37 9295288348133444912
12916748 109 18060703883725364688
13288520 33 7997973487699037203
13533116 47 18261951852534280738
13862211 1 18410289215934824467
14251731 8 12175903251321793633
14251764 18 18334852819335124906
15788980 27 13406799926227133637
17834072 33 18131910468521526463
187816 3 13758075211993014239
200 152 14261635027538791123
20281389 69 18409163320339189344
20645477 56 18113612426446205284
20645477 70 17203337672202212230
22224240 67 18186801396664104747
23402539 116 18335414673396723941
23402655 69 18059290968518492325
23536379 177 15698285494829418952
23557571 272 17023460841850878293
23559900 14 18115043917603333158
23622692 88 16298387967786757366
2916195 48 18410851075083026033
347723 3 15554448500312059987
366044 4 18412260648926466275
42630746 31 17988925544403555886
42788 4 18411416215400949584
474229 33 18260547831613827955
5104073 3 18116439142166194641

> <PUBCHEM_SHAPE_MULTIPOLES>
348.86
13.39
1.39
1.16
1.75
0.04
0.13
-3.44
-1.19
0.05
-0.06
-0.13
0.12
0.17

> <PUBCHEM_SHAPE_SELFOVERLAP>
676.203

> <PUBCHEM_SHAPE_VOLUME>
213

> <PUBCHEM_COORDINATE_TYPE>
2
5
10