46943428
  -OEChem-05042113263D

 29 28  0     1  0  0  0  0  0999 V2000
   -4.2042   -0.2259    0.0563 P   0  0  0  0  0  0  0  0  0  0  0  0
    0.9525   -0.3886    1.4345 O   0  0  0  0  0  0  0  0  0  0  0  0
   -0.4732    0.9498   -1.6654 O   0  0  0  0  0  0  0  0  0  0  0  0
   -2.7893    0.4936   -0.2457 O   0  0  0  0  0  0  0  0  0  0  0  0
    2.1800    2.0002    0.4185 O   0  0  0  0  0  0  0  0  0  0  0  0
    4.3178    0.5210    0.8498 O   0  0  0  0  0  0  0  0  0  0  0  0
    5.0753   -1.7408   -0.3383 O   0  0  0  0  0  0  0  0  0  0  0  0
   -4.1175   -0.6034    1.6264 O   0  0  0  0  0  0  0  0  0  0  0  0
   -4.0397   -1.6563   -0.6798 O   0  0  0  0  0  0  0  0  0  0  0  0
   -5.4172    0.5596   -0.3487 O   0  0  0  0  0  0  0  0  0  0  0  0
    0.9412   -0.0181    0.0589 C   0  0  1  0  0  0  0  0  0  0  0  0
   -0.3942    0.6762   -0.2669 C   0  0  2  0  0  0  0  0  0  0  0  0
    2.2098    0.7719   -0.2975 C   0  0  2  0  0  0  0  0  0  0  0  0
   -1.5939   -0.1927    0.1118 C   0  0  0  0  0  0  0  0  0  0  0  0
    3.5320    0.0725    0.0136 C   0  0  0  0  0  0  0  0  0  0  0  0
    3.8206   -1.2190   -0.7274 C   0  0  0  0  0  0  0  0  0  0  0  0
    0.9718   -0.9553   -0.5098 H   0  0  0  0  0  0  0  0  0  0  0  0
   -0.4682    1.6341    0.2613 H   0  0  0  0  0  0  0  0  0  0  0  0
    2.2111    1.0160   -1.3660 H   0  0  0  0  0  0  0  0  0  0  0  0
   -1.5595   -1.1390   -0.4381 H   0  0  0  0  0  0  0  0  0  0  0  0
   -1.6036   -0.3992    1.1859 H   0  0  0  0  0  0  0  0  0  0  0  0
    0.9560    0.4312    1.9578 H   0  0  0  0  0  0  0  0  0  0  0  0
   -1.3299    1.3793   -1.8311 H   0  0  0  0  0  0  0  0  0  0  0  0
    3.0519   -1.9574   -0.4885 H   0  0  0  0  0  0  0  0  0  0  0  0
    3.8362   -1.0167   -1.8018 H   0  0  0  0  0  0  0  0  0  0  0  0
    2.9001    2.5567    0.0757 H   0  0  0  0  0  0  0  0  0  0  0  0
    5.2200   -2.5538   -0.8518 H   0  0  0  0  0  0  0  0  0  0  0  0
   -4.9001   -1.0029    2.0623 H   0  0  0  0  0  0  0  0  0  0  0  0
   -4.8119   -2.2596   -0.7224 H   0  0  0  0  0  0  0  0  0  0  0  0
  1  4  1  0  0  0  0
  1  8  1  0  0  0  0
  1  9  1  0  0  0  0
  1 10  2  0  0  0  0
  2 11  1  0  0  0  0
  2 22  1  0  0  0  0
  3 12  1  0  0  0  0
  3 23  1  0  0  0  0
  4 14  1  0  0  0  0
  5 13  1  0  0  0  0
  5 26  1  0  0  0  0
  6 15  2  0  0  0  0
  7 16  1  0  0  0  0
  7 27  1  0  0  0  0
  8 28  1  0  0  0  0
  9 29  1  0  0  0  0
 11 12  1  0  0  0  0
 11 13  1  0  0  0  0
 11 17  1  0  0  0  0
 12 14  1  0  0  0  0
 12 18  1  0  0  0  0
 13 15  1  0  0  0  0
 13 19  1  0  0  0  0
 14 20  1  0  0  0  0
 14 21  1  0  0  0  0
 15 16  1  0  0  0  0
 16 24  1  0  0  0  0
 16 25  1  0  0  0  0
M  END
> <PUBCHEM_COMPOUND_CID>
46943428

> <PUBCHEM_CONFORMER_RMSD>
0.8

> <PUBCHEM_CONFORMER_DIVERSEORDER>
1
26
8
10
108
87
6
16
33
49
15
7
67
64
37
88
93
56
75
52
36
91
103
29
23
95
17
51
100
50
84
82
39
90
102
38
46
9
24
54
72
119
34
42
18
85
66
21
3
106
111
77
115
57
117
47
45
80
89
40
35
86
41
43
44
98
116
97
104
99
74
4
107
105
62
92
30
63
110
31
94
12
32
25
83
120
65
28
27
114
22
78
70
60
61
69
59
53
58
76
13
112
109
19
55
68
118
20
14
101
71
113
2
79
48
11
81
96
121
73
5

> <PUBCHEM_MMFF94_PARTIAL_CHARGES>
22
1 1.51
10 -0.7
11 0.28
12 0.28
13 0.34
14 0.28
15 0.45
16 0.34
2 -0.68
22 0.4
23 0.4
26 0.4
27 0.4
28 0.5
29 0.5
3 -0.68
4 -0.55
5 -0.68
6 -0.57
7 -0.68
8 -0.77
9 -0.77

> <PUBCHEM_EFFECTIVE_ROTOR_COUNT>
7

> <PUBCHEM_PHARMACOPHORE_FEATURES>
13
1 10 acceptor
1 2 acceptor
1 2 donor
1 3 acceptor
1 3 donor
1 5 acceptor
1 5 donor
1 6 acceptor
1 7 acceptor
1 7 donor
1 8 acceptor
1 9 acceptor
4 1 8 9 10 anion

> <PUBCHEM_HEAVY_ATOM_COUNT>
16

> <PUBCHEM_ATOM_DEF_STEREO_COUNT>
3

> <PUBCHEM_ATOM_UDEF_STEREO_COUNT>
0

> <PUBCHEM_BOND_DEF_STEREO_COUNT>
0

> <PUBCHEM_BOND_UDEF_STEREO_COUNT>
0

> <PUBCHEM_ISOTOPIC_ATOM_COUNT>
0

> <PUBCHEM_COMPONENT_COUNT>
1

> <PUBCHEM_CACTVS_TAUTO_COUNT>
10

> <PUBCHEM_CONFORMER_ID>
02CC4CC400000001

> <PUBCHEM_MMFF94_ENERGY>
-9.5022

> <PUBCHEM_FEATURE_SELFOVERLAP>
66.037

> <PUBCHEM_SHAPE_FINGERPRINT>
10912923 1 16917068884201359963
11128504 68 16298680433769330278
12032990 46 18113343015425896109
124424 183 17203328914484346187
12670546 56 17632578219054516097
13167823 11 18272086132310665103
13675066 3 18334013929974447413
14123238 8 11600004358166116737
14252887 29 18411979165971484576
14455015 7 18334867099141639003
15242439 84 18113617876659334157
17834072 33 18272087261596718653
17834074 16 18409168817939539074
17834076 25 15502375617157595445
18186145 218 16081367505273455101
20432913 95 18342741822920876963
20645477 70 18410571807750926742
22485316 2 18202561799924757119
23402539 116 18408597080688329829
23557571 272 17823136731100986629
23559900 14 18343297097836260232
26918003 58 17918273138614766631
3286 77 18411982455710925812
4047638 21 10087638204545843252
42 15 17847063268115557606
4990 188 18113338604652745250
542803 24 14057000508020896805
633830 44 17676203619514588117

> <PUBCHEM_SHAPE_MULTIPOLES>
280.3
11.05
1.39
1.09
4.53
0.12
0.13
3.54
0.28
-1
-0.17
0.36
0.01
0.57

> <PUBCHEM_SHAPE_SELFOVERLAP>
526.58

> <PUBCHEM_SHAPE_VOLUME>
174.3

> <PUBCHEM_COORDINATE_TYPE>
2
5
10