5459945
  -OEChem-05042113263D

 26 25  0     1  0  0  0  0  0999 V2000
    3.5766   -0.5717    0.0385 P   0  0  0  0  0  0  0  0  0  0  0  0
   -1.9825   -0.0468   -1.6808 O   0  0  0  0  0  0  0  0  0  0  0  0
   -2.2112    2.0198    0.3394 O   0  0  0  0  0  0  0  0  0  0  0  0
   -4.0115   -1.6910   -0.7203 O   0  0  0  0  0  0  0  0  0  0  0  0
    2.3005    0.4723   -0.1030 O   0  0  0  0  0  0  0  0  0  0  0  0
    0.3137    2.2319   -0.3887 O   0  0  0  0  0  0  0  0  0  0  0  0
    4.7581    0.2239   -0.5084 O   0  5  0  0  0  0  0  0  0  0  0  0
    3.1881   -1.7728   -0.8187 O   0  5  0  0  0  0  0  0  0  0  0  0
    3.6675   -0.8682    1.5325 O   0  0  0  0  0  0  0  0  0  0  0  0
   -2.0387   -0.3341   -0.2822 C   0  0  1  0  0  0  0  0  0  0  0  0
   -1.4412    0.8395    0.5104 C   0  0  1  0  0  0  0  0  0  0  0  0
   -3.4991   -0.6420    0.0968 C   0  0  2  0  0  0  0  0  0  0  0  0
   -0.0012    1.1491    0.1059 C   0  0  0  0  0  0  0  0  0  0  0  0
   -3.6396   -1.0585    1.5576 C   0  0  0  0  0  0  0  0  0  0  0  0
    1.0207    0.0487    0.3209 C   0  0  0  0  0  0  0  0  0  0  0  0
   -1.4478   -1.2453   -0.1355 H   0  0  0  0  0  0  0  0  0  0  0  0
   -1.4246    0.6099    1.5811 H   0  0  0  0  0  0  0  0  0  0  0  0
   -4.1332    0.2309   -0.0959 H   0  0  0  0  0  0  0  0  0  0  0  0
   -2.9908   -1.9113    1.7852 H   0  0  0  0  0  0  0  0  0  0  0  0
   -4.6660   -1.3842    1.7609 H   0  0  0  0  0  0  0  0  0  0  0  0
   -3.4029   -0.2408    2.2434 H   0  0  0  0  0  0  0  0  0  0  0  0
    1.0501   -0.1958    1.3863 H   0  0  0  0  0  0  0  0  0  0  0  0
    0.7353   -0.8303   -0.2604 H   0  0  0  0  0  0  0  0  0  0  0  0
   -1.0469   -0.0024   -1.9399 H   0  0  0  0  0  0  0  0  0  0  0  0
   -1.8682    2.6866    0.9588 H   0  0  0  0  0  0  0  0  0  0  0  0
   -3.8923   -1.4222   -1.6472 H   0  0  0  0  0  0  0  0  0  0  0  0
  1  5  1  0  0  0  0
  1  7  1  0  0  0  0
  1  8  1  0  0  0  0
  1  9  2  0  0  0  0
  2 10  1  0  0  0  0
  2 24  1  0  0  0  0
  3 11  1  0  0  0  0
  3 25  1  0  0  0  0
  4 12  1  0  0  0  0
  4 26  1  0  0  0  0
  5 15  1  0  0  0  0
  6 13  2  0  0  0  0
 10 11  1  0  0  0  0
 10 12  1  0  0  0  0
 10 16  1  0  0  0  0
 11 13  1  0  0  0  0
 11 17  1  0  0  0  0
 12 14  1  0  0  0  0
 12 18  1  0  0  0  0
 13 15  1  0  0  0  0
 14 19  1  0  0  0  0
 14 20  1  0  0  0  0
 14 21  1  0  0  0  0
 15 22  1  0  0  0  0
 15 23  1  0  0  0  0
M  CHG  2   7  -1   8  -1
M  END
> <PUBCHEM_COMPOUND_CID>
5459945

> <PUBCHEM_CONFORMER_RMSD>
0.6

> <PUBCHEM_CONFORMER_DIVERSEORDER>
1
172
62
108
203
128
25
5
185
28
118
223
2
207
184
7
117
235
10
129
163
67
95
194
230
42
204
141
180
170
33
114
13
127
3
191
161
135
131
56
20
32
132
160
115
159
14
22
19
101
149
196
105
45
116
55
38
239
177
85
99
37
97
134
162
47
186
171
147
72
142
188
206
155
165
66
78
4
17
137
208
59
6
197
169
80
221
130
202
84
226
102
87
73
77
205
212
109
193
8
63
86
49
75
123
232
83
44
237
53
11
209
179
164
9
12
69
30
140
213
119
136
61
103
228
151
154
187
210
192
40
200
173
218
122
74
215
46
113
16
29
112
126
107
23
176
153
121
91
233
48
96
125
65
217
199
139
133
92
35
68
146
124
152
71
41
238
148
98
138
168
110
81
231
158
21
82
157
219
76
89
93
174
100
34
178
144
156
166
50
227
31
216
39
57
58
106
229
222
111
175
15
198
182
224
201
150
143
104
24
236
120
27
70
181
190
225
18
43
234
211
26
214
94
52
54
90
183
189
79
167
60
51
88
220
195
36
64
145

> <PUBCHEM_MMFF94_PARTIAL_CHARGES>
17
1 1.37
10 0.28
11 0.34
12 0.28
13 0.45
15 0.34
2 -0.68
24 0.4
25 0.4
26 0.4
3 -0.68
4 -0.68
5 -0.55
6 -0.57
7 -1.03
8 -1.03
9 -1.03

> <PUBCHEM_EFFECTIVE_ROTOR_COUNT>
6

> <PUBCHEM_PHARMACOPHORE_FEATURES>
11
1 2 acceptor
1 2 donor
1 3 acceptor
1 3 donor
1 4 acceptor
1 4 donor
1 6 acceptor
1 7 acceptor
1 8 acceptor
1 9 acceptor
4 1 7 8 9 anion

> <PUBCHEM_HEAVY_ATOM_COUNT>
15

> <PUBCHEM_ATOM_DEF_STEREO_COUNT>
3

> <PUBCHEM_ATOM_UDEF_STEREO_COUNT>
0

> <PUBCHEM_BOND_DEF_STEREO_COUNT>
0

> <PUBCHEM_BOND_UDEF_STEREO_COUNT>
0

> <PUBCHEM_ISOTOPIC_ATOM_COUNT>
0

> <PUBCHEM_COMPONENT_COUNT>
1

> <PUBCHEM_CACTVS_TAUTO_COUNT>
9

> <PUBCHEM_CONFORMER_ID>
00534FE900000001

> <PUBCHEM_MMFF94_ENERGY>
26.4862

> <PUBCHEM_FEATURE_SELFOVERLAP>
55.89

> <PUBCHEM_SHAPE_FINGERPRINT>
10618630 7 18341052938895988534
11357001 24 18340495461100538105
11543360 7 15430324671307302003
12119455 92 11311783838558193553
12251169 10 15625940984228359961
12932764 1 17203318988656630500
13296908 3 18272089340629824246
14123260 362 8646486357735793579
14252887 29 18342745121935801770
18186145 218 17458350693613257592
19107657 162 18341892970085184538
200 152 17821728330031433296
20112054 13 12175619577353326528
20281407 28 18202281398600108762
20281475 54 18341612577645739986
20645477 70 18263917916404689455
20671657 53 17894910754202585309
20871998 184 18059575737297470773
20871999 31 18040148505122250117
22485316 2 18410854356321573227
22646028 28 18188204308723417386
22959321 94 18341322370716082706
23402539 116 18409724062848017558
449060 23 18411699880842655755
83771 10 18272090517129070936

> <PUBCHEM_SHAPE_MULTIPOLES>
265.59
8.52
1.77
1.17
4.67
0.57
0.08
-4.41
0.36
-0.56
-0.06
-0.45
-0.38
-0.1

> <PUBCHEM_SHAPE_SELFOVERLAP>
499.05

> <PUBCHEM_SHAPE_VOLUME>
165.4

> <PUBCHEM_COORDINATE_TYPE>
2
5
10