5459952
  -OEChem-05042113263D

 29 28  0     1  0  0  0  0  0999 V2000
    3.3053   -0.4439   -0.3569 P   0  0  0  0  0  0  0  0  0  0  0  0
   -1.6993    2.3562    0.1066 O   0  0  0  0  0  0  0  0  0  0  0  0
    0.5043    2.0084    1.7771 O   0  0  0  0  0  0  0  0  0  0  0  0
    2.0218    0.4477    0.0533 O   0  0  0  0  0  0  0  0  0  0  0  0
   -1.9640    0.7749   -2.1828 O   0  0  0  0  0  0  0  0  0  0  0  0
   -3.7216   -0.1672   -0.3377 O   0  0  0  0  0  0  0  0  0  0  0  0
   -3.3085   -2.3933    1.0677 O   0  0  0  0  0  0  0  0  0  0  0  0
    2.6577   -1.7852   -0.9867 O   0  0  0  0  0  0  0  0  0  0  0  0
    3.8663   -0.9394    1.0766 O   0  0  0  0  0  0  0  0  0  0  0  0
    4.3122    0.2515   -1.2256 O   0  0  0  0  0  0  0  0  0  0  0  0
   -0.7638    1.3207   -0.1793 C   0  0  1  0  0  0  0  0  0  0  0  0
   -0.0818    0.8798    1.1293 C   0  0  1  0  0  0  0  0  0  0  0  0
   -1.4297    0.2024   -0.9957 C   0  0  1  0  0  0  0  0  0  0  0  0
    1.0235   -0.1461    0.8771 C   0  0  0  0  0  0  0  0  0  0  0  0
   -2.5523   -0.5514   -0.2847 C   0  0  0  0  0  0  0  0  0  0  0  0
   -2.1700   -1.8151    0.4617 C   0  0  0  0  0  0  0  0  0  0  0  0
   -0.0201    1.8051   -0.8256 H   0  0  0  0  0  0  0  0  0  0  0  0
   -0.8243    0.4846    1.8285 H   0  0  0  0  0  0  0  0  0  0  0  0
   -0.6880   -0.5307   -1.3267 H   0  0  0  0  0  0  0  0  0  0  0  0
    1.4860   -0.4131    1.8332 H   0  0  0  0  0  0  0  0  0  0  0  0
    0.6472   -1.0573    0.4087 H   0  0  0  0  0  0  0  0  0  0  0  0
   -1.2293    3.0494    0.6009 H   0  0  0  0  0  0  0  0  0  0  0  0
    1.1765    2.3774    1.1787 H   0  0  0  0  0  0  0  0  0  0  0  0
   -1.7540   -2.5350   -0.2479 H   0  0  0  0  0  0  0  0  0  0  0  0
   -1.4414   -1.6051    1.2436 H   0  0  0  0  0  0  0  0  0  0  0  0
   -2.5783    1.4821   -1.9210 H   0  0  0  0  0  0  0  0  0  0  0  0
   -3.6211   -1.7760    1.7510 H   0  0  0  0  0  0  0  0  0  0  0  0
    3.2524   -2.4649   -1.3694 H   0  0  0  0  0  0  0  0  0  0  0  0
    4.7128   -1.4340    1.1097 H   0  0  0  0  0  0  0  0  0  0  0  0
  1  4  1  0  0  0  0
  1  8  1  0  0  0  0
  1  9  1  0  0  0  0
  1 10  2  0  0  0  0
  2 11  1  0  0  0  0
  2 22  1  0  0  0  0
  3 12  1  0  0  0  0
  3 23  1  0  0  0  0
  4 14  1  0  0  0  0
  5 13  1  0  0  0  0
  5 26  1  0  0  0  0
  6 15  2  0  0  0  0
  7 16  1  0  0  0  0
  7 27  1  0  0  0  0
  8 28  1  0  0  0  0
  9 29  1  0  0  0  0
 11 12  1  0  0  0  0
 11 13  1  0  0  0  0
 11 17  1  0  0  0  0
 12 14  1  0  0  0  0
 12 18  1  0  0  0  0
 13 15  1  0  0  0  0
 13 19  1  0  0  0  0
 14 20  1  0  0  0  0
 14 21  1  0  0  0  0
 15 16  1  0  0  0  0
 16 24  1  0  0  0  0
 16 25  1  0  0  0  0
M  END
> <PUBCHEM_COMPOUND_CID>
5459952

> <PUBCHEM_CONFORMER_RMSD>
0.8

> <PUBCHEM_CONFORMER_DIVERSEORDER>
3
9
81
154
37
85
87
60
2
147
5
143
7
12
134
49
126
35
150
95
74
165
98
82
121
146
123
124
57
119
68
64
42
122
168
70
132
76
28
52
58
72
130
54
63
6
78
39
108
59
155
48
128
71
23
18
166
11
47
86
20
161
15
127
88
99
4
8
162
164
92
114
53
129
79
131
65
10
148
80
156
61
83
137
40
91
144
29
112
149
31
69
1
169
25
101
19
103
100
142
24
145
14
13
93
73
110
84
153
38
116
51
33
32
90
26
94
44
46
163
34
22
167
109
157
139
118
21
27
133
135
113
115
67
89
106
97
151
104
141
17
117
16
107
102
50
125
152
66
120
96
30
75
36
138
158
159
140
77
111
41
56
62
136
43
45
55
160
105

> <PUBCHEM_MMFF94_PARTIAL_CHARGES>
22
1 1.51
10 -0.7
11 0.28
12 0.28
13 0.34
14 0.28
15 0.45
16 0.34
2 -0.68
22 0.4
23 0.4
26 0.4
27 0.4
28 0.5
29 0.5
3 -0.68
4 -0.55
5 -0.68
6 -0.57
7 -0.68
8 -0.77
9 -0.77

> <PUBCHEM_EFFECTIVE_ROTOR_COUNT>
7

> <PUBCHEM_PHARMACOPHORE_FEATURES>
13
1 10 acceptor
1 2 acceptor
1 2 donor
1 3 acceptor
1 3 donor
1 5 acceptor
1 5 donor
1 6 acceptor
1 7 acceptor
1 7 donor
1 8 acceptor
1 9 acceptor
4 1 8 9 10 anion

> <PUBCHEM_HEAVY_ATOM_COUNT>
16

> <PUBCHEM_ATOM_DEF_STEREO_COUNT>
3

> <PUBCHEM_ATOM_UDEF_STEREO_COUNT>
0

> <PUBCHEM_BOND_DEF_STEREO_COUNT>
0

> <PUBCHEM_BOND_UDEF_STEREO_COUNT>
0

> <PUBCHEM_ISOTOPIC_ATOM_COUNT>
0

> <PUBCHEM_COMPONENT_COUNT>
1

> <PUBCHEM_CACTVS_TAUTO_COUNT>
10

> <PUBCHEM_CONFORMER_ID>
00534FF000000003

> <PUBCHEM_MMFF94_ENERGY>
-10.5862

> <PUBCHEM_FEATURE_SELFOVERLAP>
66.044

> <PUBCHEM_SHAPE_FINGERPRINT>
10799339 124 11312059837899832468
12173636 292 18119242866130207909
12202030 40 18265881643981967211
13571099 52 9582979963824916987
15276787 5 13038918715418654438
19766037 51 18272657873866572578
20201158 50 18342736312573002566
20281407 28 17989486329197340646
20361792 2 17489581273106695132
20645476 183 17906176148408710968
20711983 138 18340761633044969185
20871999 31 17749383815135777287
21061003 4 17561366201135066400
21524375 3 16692745134713142384
22721475 48 18413103970055082987
23402539 116 15864067702318994950
23557571 272 18270110215816563936
23559900 14 18337376159776540162
23598291 2 15143738997300148265
238078 22 18263940988631451714
2748010 2 18122041351087805137
576247 118 18271810167465408121
81228 2 17772743867101551888

> <PUBCHEM_SHAPE_MULTIPOLES>
280.3
6.63
2.1
1.5
4.55
0.07
0.2
3.2
1.19
-1.36
-0.66
0.03
-0.32
0.84

> <PUBCHEM_SHAPE_SELFOVERLAP>
527.503

> <PUBCHEM_SHAPE_VOLUME>
173.5

> <PUBCHEM_COORDINATE_TYPE>
2
5
10