5460024
  -OEChem-05042113263D

 24 23  0     1  0  0  0  0  0999 V2000
   -0.3525    0.2542   -1.6154 O   0  0  0  0  0  0  0  0  0  0  0  0
   -2.1386   -0.0796    1.5676 O   0  0  0  0  0  0  0  0  0  0  0  0
    0.4023   -1.9834    0.0179 O   0  0  0  0  0  0  0  0  0  0  0  0
   -4.2702    0.3722   -0.1182 O   0  0  0  0  0  0  0  0  0  0  0  0
    2.7776   -0.9899   -0.5445 O   0  0  0  0  0  0  0  0  0  0  0  0
    3.8426    1.3476    0.1652 O   0  0  0  0  0  0  0  0  0  0  0  0
   -0.4960    0.2266   -0.1983 C   0  0  1  0  0  0  0  0  0  0  0  0
   -1.9439   -0.1603    0.1559 C   0  0  2  0  0  0  0  0  0  0  0  0
    0.6018   -0.6394    0.4383 C   0  0  2  0  0  0  0  0  0  0  0  0
   -2.9599    0.7654   -0.5139 C   0  0  0  0  0  0  0  0  0  0  0  0
    2.0368   -0.2423    0.0959 C   0  0  0  0  0  0  0  0  0  0  0  0
    2.5000    1.1290    0.5493 C   0  0  0  0  0  0  0  0  0  0  0  0
   -0.3283    1.2530    0.1530 H   0  0  0  0  0  0  0  0  0  0  0  0
   -2.1557   -1.1926   -0.1441 H   0  0  0  0  0  0  0  0  0  0  0  0
    0.5147   -0.6286    1.5301 H   0  0  0  0  0  0  0  0  0  0  0  0
   -2.8156    1.8033   -0.1962 H   0  0  0  0  0  0  0  0  0  0  0  0
   -2.9066    0.7071   -1.6046 H   0  0  0  0  0  0  0  0  0  0  0  0
   -0.7707    1.0681   -1.9432 H   0  0  0  0  0  0  0  0  0  0  0  0
    1.8863    1.8976    0.0748 H   0  0  0  0  0  0  0  0  0  0  0  0
    2.4189    1.2067    1.6368 H   0  0  0  0  0  0  0  0  0  0  0  0
   -1.9475    0.8331    1.8438 H   0  0  0  0  0  0  0  0  0  0  0  0
    0.4135   -1.9951   -0.9546 H   0  0  0  0  0  0  0  0  0  0  0  0
   -4.8931    0.9793   -0.5529 H   0  0  0  0  0  0  0  0  0  0  0  0
    4.3936    0.7141    0.6561 H   0  0  0  0  0  0  0  0  0  0  0  0
  1  7  1  0  0  0  0
  1 18  1  0  0  0  0
  2  8  1  0  0  0  0
  2 21  1  0  0  0  0
  3  9  1  0  0  0  0
  3 22  1  0  0  0  0
  4 10  1  0  0  0  0
  4 23  1  0  0  0  0
  5 11  2  0  0  0  0
  6 12  1  0  0  0  0
  6 24  1  0  0  0  0
  7  8  1  0  0  0  0
  7  9  1  0  0  0  0
  7 13  1  0  0  0  0
  8 10  1  0  0  0  0
  8 14  1  0  0  0  0
  9 11  1  0  0  0  0
  9 15  1  0  0  0  0
 10 16  1  0  0  0  0
 10 17  1  0  0  0  0
 11 12  1  0  0  0  0
 12 19  1  0  0  0  0
 12 20  1  0  0  0  0
M  END
> <PUBCHEM_COMPOUND_CID>
5460024

> <PUBCHEM_CONFORMER_RMSD>
0.6

> <PUBCHEM_CONFORMER_DIVERSEORDER>
1
29
72
5
60
43
20
99
87
96
90
22
73
97
47
33
30
64
36
4
81
50
51
108
115
61
21
15
106
105
18
113
112
52
45
63
3
11
59
103
74
40
79
76
53
6
23
89
98
82
62
66
94
100
57
91
37
13
95
107
104
67
102
34
86
42
55
19
109
8
71
2
24
38
111
10
83
58
93
101
7
25
41
12
88
85
77
80
69
14
16
35
28
27
56
49
84
26
31
48
116
46
17
54
78
75
65
68
114
92
39
9
110
32
44
70

> <PUBCHEM_MMFF94_PARTIAL_CHARGES>
17
1 -0.68
10 0.28
11 0.45
12 0.34
18 0.4
2 -0.68
21 0.4
22 0.4
23 0.4
24 0.4
3 -0.68
4 -0.68
5 -0.57
6 -0.68
7 0.28
8 0.28
9 0.34

> <PUBCHEM_EFFECTIVE_ROTOR_COUNT>
5

> <PUBCHEM_PHARMACOPHORE_FEATURES>
11
1 1 acceptor
1 1 donor
1 2 acceptor
1 2 donor
1 3 acceptor
1 3 donor
1 4 acceptor
1 4 donor
1 5 acceptor
1 6 acceptor
1 6 donor

> <PUBCHEM_HEAVY_ATOM_COUNT>
12

> <PUBCHEM_ATOM_DEF_STEREO_COUNT>
3

> <PUBCHEM_ATOM_UDEF_STEREO_COUNT>
0

> <PUBCHEM_BOND_DEF_STEREO_COUNT>
0

> <PUBCHEM_BOND_UDEF_STEREO_COUNT>
0

> <PUBCHEM_ISOTOPIC_ATOM_COUNT>
0

> <PUBCHEM_COMPONENT_COUNT>
1

> <PUBCHEM_CACTVS_TAUTO_COUNT>
6

> <PUBCHEM_CONFORMER_ID>
0053503800000001

> <PUBCHEM_MMFF94_ENERGY>
15.0777

> <PUBCHEM_FEATURE_SELFOVERLAP>
55.859

> <PUBCHEM_SHAPE_FINGERPRINT>
10219947 1 18261114058384384669
10857977 72 17240490225047897867
11031198 65 18202005468996006340
11062470 55 17676487233474702325
12119455 92 18188194464378494450
12251169 10 16660360402463931748
12932764 1 18187080616171145787
14325111 11 18411979178196964283
14390081 3 18335135367325873473
14993402 34 16845569837791510833
15775835 57 18131347535510818212
170605 34 18342735221714229554
18175812 5 18113340803544242390
18186145 218 18202012018530832888
18342897 55 18410562994578242719
20645476 183 16988553649676645349
20711983 171 16343715291607630865
20715346 28 18187377539944753818
21293036 1 13901907838539345080
23235685 24 18339915017692305896
3248919 1 17418376869853109446
5084963 1 17560796576617889627

> <PUBCHEM_SHAPE_MULTIPOLES>
211.74
6.02
1.28
1.02
1.43
0.31
-0.01
-2.3
0.19
-0.9
0.01
0.36
-0.04
0.43

> <PUBCHEM_SHAPE_SELFOVERLAP>
401.847

> <PUBCHEM_SHAPE_VOLUME>
129.9

> <PUBCHEM_COORDINATE_TYPE>
2
5
10