55254797
  -OEChem-05042113263D

 23 23  0     1  0  0  0  0  0999 V2000
   -2.9324   -1.8960   -0.2581 Cl  0  0  0  0  0  0  0  0  0  0  0  0
    0.0045   -0.9628   -0.3355 O   0  0  0  0  0  0  0  0  0  0  0  0
   -1.0207    2.4167    0.3895 O   0  0  0  0  0  0  0  0  0  0  0  0
    1.9026    2.0453   -0.5515 O   0  0  0  0  0  0  0  0  0  0  0  0
   -1.2398   -0.0910    1.4543 O   0  0  0  0  0  0  0  0  0  0  0  0
    2.4195   -2.3556    0.0003 O   0  0  0  0  0  0  0  0  0  0  0  0
   -0.4075    1.3443   -0.2976 C   0  0  1  0  0  0  0  0  0  0  0  0
    1.0366    1.1409    0.1086 C   0  0  1  0  0  0  0  0  0  0  0  0
   -1.0088   -0.0144    0.0467 C   0  0  1  0  0  0  0  0  0  0  0  0
    1.2791   -0.2883   -0.3637 C   0  0  1  0  0  0  0  0  0  0  0  0
    2.2683   -1.0408    0.5094 C   0  0  0  0  0  0  0  0  0  0  0  0
   -2.3014   -0.2984   -0.7024 C   0  0  0  0  0  0  0  0  0  0  0  0
   -0.4653    1.5513   -1.3740 H   0  0  0  0  0  0  0  0  0  0  0  0
    1.1707    1.2638    1.1892 H   0  0  0  0  0  0  0  0  0  0  0  0
    1.6230   -0.3192   -1.4051 H   0  0  0  0  0  0  0  0  0  0  0  0
    1.8986   -1.1241    1.5368 H   0  0  0  0  0  0  0  0  0  0  0  0
    3.2451   -0.5475    0.5135 H   0  0  0  0  0  0  0  0  0  0  0  0
   -2.1445   -0.3042   -1.7851 H   0  0  0  0  0  0  0  0  0  0  0  0
   -3.0779    0.4301   -0.4519 H   0  0  0  0  0  0  0  0  0  0  0  0
   -1.9564    2.4377    0.1270 H   0  0  0  0  0  0  0  0  0  0  0  0
    1.7707    1.9539   -1.5103 H   0  0  0  0  0  0  0  0  0  0  0  0
   -1.8878   -0.7975    1.6139 H   0  0  0  0  0  0  0  0  0  0  0  0
    3.0553   -2.8141    0.5757 H   0  0  0  0  0  0  0  0  0  0  0  0
  1 12  1  0  0  0  0
  2  9  1  0  0  0  0
  2 10  1  0  0  0  0
  3  7  1  0  0  0  0
  3 20  1  0  0  0  0
  4  8  1  0  0  0  0
  4 21  1  0  0  0  0
  5  9  1  0  0  0  0
  5 22  1  0  0  0  0
  6 11  1  0  0  0  0
  6 23  1  0  0  0  0
  7  8  1  0  0  0  0
  7  9  1  0  0  0  0
  7 13  1  0  0  0  0
  8 10  1  0  0  0  0
  8 14  1  0  0  0  0
  9 12  1  0  0  0  0
 10 11  1  0  0  0  0
 10 15  1  0  0  0  0
 11 16  1  0  0  0  0
 11 17  1  0  0  0  0
 12 18  1  0  0  0  0
 12 19  1  0  0  0  0
M  END
> <PUBCHEM_COMPOUND_CID>
55254797

> <PUBCHEM_CONFORMER_RMSD>
0.6

> <PUBCHEM_CONFORMER_DIVERSEORDER>
1
10
7
11
2
9
3
8
6
5
12
4

> <PUBCHEM_MMFF94_PARTIAL_CHARGES>
16
1 -0.29
10 0.28
11 0.28
12 0.29
2 -0.56
20 0.4
21 0.4
22 0.4
23 0.4
3 -0.68
4 -0.68
5 -0.68
6 -0.68
7 0.28
8 0.28
9 0.56

> <PUBCHEM_EFFECTIVE_ROTOR_COUNT>
3

> <PUBCHEM_PHARMACOPHORE_FEATURES>
10
1 2 acceptor
1 3 acceptor
1 3 donor
1 4 acceptor
1 4 donor
1 5 acceptor
1 5 donor
1 6 acceptor
1 6 donor
5 2 7 8 9 10 rings

> <PUBCHEM_HEAVY_ATOM_COUNT>
12

> <PUBCHEM_ATOM_DEF_STEREO_COUNT>
4

> <PUBCHEM_ATOM_UDEF_STEREO_COUNT>
0

> <PUBCHEM_BOND_DEF_STEREO_COUNT>
0

> <PUBCHEM_BOND_UDEF_STEREO_COUNT>
0

> <PUBCHEM_ISOTOPIC_ATOM_COUNT>
0

> <PUBCHEM_COMPONENT_COUNT>
1

> <PUBCHEM_CACTVS_TAUTO_COUNT>
1

> <PUBCHEM_CONFORMER_ID>
034B1F0D00000001

> <PUBCHEM_MMFF94_ENERGY>
29.7747

> <PUBCHEM_FEATURE_SELFOVERLAP>
50.805

> <PUBCHEM_SHAPE_FINGERPRINT>
12423570 1 16189185864516779404
13024252 1 16302352630596094914
14128692 85 18412823590337315446
16945 1 18267303132001461125
19021347 11 18049718817333434727
193761 8 18410855430142901876
20645477 70 18264194984951364999
20653091 64 18409729581933630106
20871998 184 17834684798579840698
21040471 1 16825021352727009325
21501502 16 18409168800817607757
23552333 60 18129384971811434451
23552423 10 18335702762338162349
241688 4 18119801422368729208
2748010 2 18411410743765452597
29004967 10 18265611181332948017
369184 2 17486191341356147170
5084963 1 18131348575035231202
54338 74 18119797028448224282
68250623 7 18410013230227186877

> <PUBCHEM_SHAPE_MULTIPOLES>
219.48
3.63
2.44
0.85
1.5
0.07
-0.18
-2.06
0.33
-0.99
-0.01
0.18
0.05
-0.34

> <PUBCHEM_SHAPE_SELFOVERLAP>
431.484

> <PUBCHEM_SHAPE_VOLUME>
133.9

> <PUBCHEM_COORDINATE_TYPE>
2
5
10