56971968
  -OEChem-05042113263D

 40 39  0     1  0  0  0  0  0999 V2000
   -2.4612    0.7206    1.2590 O   0  0  0  0  0  0  0  0  0  0  0  0
   -3.2368   -2.0824    1.1608 O   0  0  0  0  0  0  0  0  0  0  0  0
   -4.6501   -0.3006   -1.4768 O   0  0  0  0  0  0  0  0  0  0  0  0
   -0.6286   -2.1997    1.5874 O   0  0  0  0  0  0  0  0  0  0  0  0
   -4.0244    2.4674   -1.2750 O   0  0  0  0  0  0  0  0  0  0  0  0
    4.6839   -1.3028   -1.4961 O   0  0  0  0  0  0  0  0  0  0  0  0
    3.8948   -2.4156    0.3146 O   0  0  0  0  0  0  0  0  0  0  0  0
    3.0576    3.2266    1.7956 O   0  0  0  0  0  0  0  0  0  0  0  0
    2.9290    3.4037   -0.4661 O   0  0  0  0  0  0  0  0  0  0  0  0
    1.3965   -1.4047    0.0262 N   0  0  0  0  0  0  0  0  0  0  0  0
   -2.8102    0.0380    0.0473 C   0  0  1  0  0  0  0  0  0  0  0  0
   -2.4331   -1.4439    0.1800 C   0  0  1  0  0  0  0  0  0  0  0  0
   -4.3068    0.2899   -0.2174 C   0  0  1  0  0  0  0  0  0  0  0  0
    2.4042   -0.9149   -0.9050 C   0  0  1  0  0  0  0  0  0  0  0  0
    0.0542   -1.1303   -0.4663 C   0  0  0  0  0  0  0  0  0  0  0  0
   -0.9603   -1.6463    0.5382 C   0  0  0  0  0  0  0  0  0  0  0  0
    2.5556    0.6144   -0.8464 C   0  0  0  0  0  0  0  0  0  0  0  0
   -4.7176    1.7613   -0.2531 C   0  0  0  0  0  0  0  0  0  0  0  0
    2.6502    1.2312    0.5519 C   0  0  0  0  0  0  0  0  0  0  0  0
    3.7093   -1.6315   -0.6073 C   0  0  0  0  0  0  0  0  0  0  0  0
    2.8937    2.7194    0.5486 C   0  0  0  0  0  0  0  0  0  0  0  0
   -2.2319    0.4909   -0.7661 H   0  0  0  0  0  0  0  0  0  0  0  0
   -2.6064   -1.9710   -0.7641 H   0  0  0  0  0  0  0  0  0  0  0  0
   -4.9135   -0.1930    0.5582 H   0  0  0  0  0  0  0  0  0  0  0  0
    2.1426   -1.2178   -1.9283 H   0  0  0  0  0  0  0  0  0  0  0  0
   -0.0995   -0.0549   -0.5784 H   0  0  0  0  0  0  0  0  0  0  0  0
   -0.1282   -1.6342   -1.4215 H   0  0  0  0  0  0  0  0  0  0  0  0
    1.7087    1.0782   -1.3694 H   0  0  0  0  0  0  0  0  0  0  0  0
    3.4418    0.9153   -1.4204 H   0  0  0  0  0  0  0  0  0  0  0  0
    1.4951   -2.4156    0.1288 H   0  0  0  0  0  0  0  0  0  0  0  0
   -4.5209    2.2510    0.7057 H   0  0  0  0  0  0  0  0  0  0  0  0
   -5.7874    1.8416   -0.4739 H   0  0  0  0  0  0  0  0  0  0  0  0
    1.7205    1.0578    1.1047 H   0  0  0  0  0  0  0  0  0  0  0  0
    3.4769    0.7636    1.0985 H   0  0  0  0  0  0  0  0  0  0  0  0
   -1.4919    0.7253    1.3303 H   0  0  0  0  0  0  0  0  0  0  0  0
   -3.1461   -1.5808    1.9892 H   0  0  0  0  0  0  0  0  0  0  0  0
   -4.6210   -1.2659   -1.3675 H   0  0  0  0  0  0  0  0  0  0  0  0
   -4.3361    3.3881   -1.2475 H   0  0  0  0  0  0  0  0  0  0  0  0
    5.5268   -1.7652   -1.3014 H   0  0  0  0  0  0  0  0  0  0  0  0
    3.2091    4.1957    1.7798 H   0  0  0  0  0  0  0  0  0  0  0  0
  1 11  1  0  0  0  0
  1 35  1  0  0  0  0
  2 12  1  0  0  0  0
  2 36  1  0  0  0  0
  3 13  1  0  0  0  0
  3 37  1  0  0  0  0
  4 16  2  0  0  0  0
  5 18  1  0  0  0  0
  5 38  1  0  0  0  0
  6 20  1  0  0  0  0
  6 39  1  0  0  0  0
  7 20  2  0  0  0  0
  8 21  1  0  0  0  0
  8 40  1  0  0  0  0
  9 21  2  0  0  0  0
 10 14  1  0  0  0  0
 10 15  1  0  0  0  0
 10 30  1  0  0  0  0
 11 12  1  0  0  0  0
 11 13  1  0  0  0  0
 11 22  1  0  0  0  0
 12 16  1  0  0  0  0
 12 23  1  0  0  0  0
 13 18  1  0  0  0  0
 13 24  1  0  0  0  0
 14 17  1  0  0  0  0
 14 20  1  0  0  0  0
 14 25  1  0  0  0  0
 15 16  1  0  0  0  0
 15 26  1  0  0  0  0
 15 27  1  0  0  0  0
 17 19  1  0  0  0  0
 17 28  1  0  0  0  0
 17 29  1  0  0  0  0
 18 31  1  0  0  0  0
 18 32  1  0  0  0  0
 19 21  1  0  0  0  0
 19 33  1  0  0  0  0
 19 34  1  0  0  0  0
M  END
> <PUBCHEM_COMPOUND_CID>
56971968

> <PUBCHEM_CONFORMER_RMSD>
1

> <PUBCHEM_CONFORMER_DIVERSEORDER>
2
28
17
14
41
92
6
95
79
33
65
27
86
84
57
77
54
21
7
50
64
42
16
68
94
70
67
22
45
60
62
78
15
53
52
26
24
69
47
8
97
89
88
37
96
74
91
13
20
43
56
58
51
81
80
76
5
35
55
44
49
18
39
66
90
82
4
30
19
29
85
72
12
98
46
11
87
75
73
32
59
40
10
38
23
48
34
25
36
63
61
83
93
1
31
71
3
9

> <PUBCHEM_MMFF94_PARTIAL_CHARGES>
27
1 -0.68
10 -0.9
11 0.28
12 0.34
13 0.28
14 0.33
15 0.33
16 0.45
18 0.28
19 0.06
2 -0.68
20 0.66
21 0.66
3 -0.68
30 0.36
35 0.4
36 0.4
37 0.4
38 0.4
39 0.5
4 -0.57
40 0.5
5 -0.68
6 -0.65
7 -0.57
8 -0.65
9 -0.57

> <PUBCHEM_EFFECTIVE_ROTOR_COUNT>
11

> <PUBCHEM_PHARMACOPHORE_FEATURES>
17
1 1 acceptor
1 1 donor
1 10 cation
1 10 donor
1 2 acceptor
1 2 donor
1 3 acceptor
1 3 donor
1 4 acceptor
1 5 acceptor
1 5 donor
1 6 acceptor
1 7 acceptor
1 8 acceptor
1 9 acceptor
3 6 7 20 anion
3 8 9 21 anion

> <PUBCHEM_HEAVY_ATOM_COUNT>
21

> <PUBCHEM_ATOM_DEF_STEREO_COUNT>
4

> <PUBCHEM_ATOM_UDEF_STEREO_COUNT>
0

> <PUBCHEM_BOND_DEF_STEREO_COUNT>
0

> <PUBCHEM_BOND_UDEF_STEREO_COUNT>
0

> <PUBCHEM_ISOTOPIC_ATOM_COUNT>
0

> <PUBCHEM_COMPONENT_COUNT>
1

> <PUBCHEM_CACTVS_TAUTO_COUNT>
10

> <PUBCHEM_CONFORMER_ID>
036552C000000002

> <PUBCHEM_MMFF94_ENERGY>
29.2624

> <PUBCHEM_FEATURE_SELFOVERLAP>
86.418

> <PUBCHEM_SHAPE_FINGERPRINT>
12403259 415 18259708900104830813
12549972 3 18041290949364573338
12788726 201 17903365810443929930
13134695 92 18342176614453091662
13583140 156 18410300215431316591
14251764 38 18337382837844471725
14347329 18 16807003239065432157
14466204 15 18119239563394770026
14848178 96 18334293184390042213
14866123 147 16536802435765022786
15295992 7 18333741199487945699
15342816 4 13110960898987609807
15806764 133 18196680486389745574
17868525 174 18261668156705673018
17980427 23 17417256429318919632
18186145 218 18410301302199947763
18335252 114 17978220562020468869
192875 21 18059296448427159960
20621476 13 18412260674802083392
20681677 76 18339083807975772979
21033648 29 17821725010106473733
22749437 52 18338517542397471321
23557571 272 17897447413595924747
23559900 14 18343300362227761002
345986 75 17318715878077355050
495365 180 18272365408248100806
59124914 9 18045221544678194289
633830 44 18410284805573214799
7399639 24 17979642556128769619
9709674 26 18410854403930437797
9971528 1 17988082184725559382
9981440 41 17980187905685507410

> <PUBCHEM_SHAPE_MULTIPOLES>
374.37
10.3
3.65
1.33
4.88
2.79
-0.14
2.56
2.73
-3.17
-0.9
-0.03
0.14
2.22

> <PUBCHEM_SHAPE_SELFOVERLAP>
730.157

> <PUBCHEM_SHAPE_VOLUME>
223.4

> <PUBCHEM_COORDINATE_TYPE>
2
5
10