70602053
  -OEChem-05042113263D

 38 38  0     1  0  0  0  0  0999 V2000
    1.8565   -1.7651    1.1299 O   0  0  0  0  0  0  0  0  0  0  0  0
    2.5449   -1.4294   -1.4847 O   0  0  0  0  0  0  0  0  0  0  0  0
   -0.5978   -2.1042    0.2029 O   0  0  0  0  0  0  0  0  0  0  0  0
    4.2342   -0.4032    0.5398 O   0  0  0  0  0  0  0  0  0  0  0  0
    4.5134    2.5890    0.2640 O   0  0  0  0  0  0  0  0  0  0  0  0
   -2.3323   -0.0338   -0.3243 N   0  0  0  0  0  0  0  0  0  0  0  0
   -3.1581    0.7117   -1.2846 C   0  0  0  0  0  0  0  0  0  0  0  0
   -2.6181    0.3809    1.0564 C   0  0  0  0  0  0  0  0  0  0  0  0
   -4.6482    0.5003   -1.0120 C   0  0  0  0  0  0  0  0  0  0  0  0
   -4.0905    0.1588    1.4055 C   0  0  0  0  0  0  0  0  0  0  0  0
   -5.0083    0.8749    0.4211 C   0  0  0  0  0  0  0  0  0  0  0  0
   -0.9120    0.1408   -0.6271 C   0  0  0  0  0  0  0  0  0  0  0  0
    1.3089   -0.6500    0.4428 C   0  0  1  0  0  0  0  0  0  0  0  0
    2.1969   -0.2518   -0.7442 C   0  0  1  0  0  0  0  0  0  0  0  0
   -0.1229   -0.9825    0.0208 C   0  0  0  0  0  0  0  0  0  0  0  0
    3.5065    0.4552   -0.3468 C   0  0  1  0  0  0  0  0  0  0  0  0
    3.3270    1.8083    0.3405 C   0  0  0  0  0  0  0  0  0  0  0  0
   -2.9243    1.7840   -1.2494 H   0  0  0  0  0  0  0  0  0  0  0  0
   -2.9489    0.3654   -2.3041 H   0  0  0  0  0  0  0  0  0  0  0  0
   -2.0162   -0.1985    1.7663 H   0  0  0  0  0  0  0  0  0  0  0  0
   -2.3650    1.4390    1.2068 H   0  0  0  0  0  0  0  0  0  0  0  0
   -4.9091   -0.5505   -1.1917 H   0  0  0  0  0  0  0  0  0  0  0  0
   -5.2413    1.1007   -1.7111 H   0  0  0  0  0  0  0  0  0  0  0  0
   -4.2883    0.5173    2.4220 H   0  0  0  0  0  0  0  0  0  0  0  0
   -4.3120   -0.9161    1.3965 H   0  0  0  0  0  0  0  0  0  0  0  0
   -4.9102    1.9595    0.5516 H   0  0  0  0  0  0  0  0  0  0  0  0
   -6.0534    0.6185    0.6260 H   0  0  0  0  0  0  0  0  0  0  0  0
   -0.7249    0.0545   -1.7043 H   0  0  0  0  0  0  0  0  0  0  0  0
   -0.5412    1.1161   -0.2919 H   0  0  0  0  0  0  0  0  0  0  0  0
    1.2271    0.1689    1.1651 H   0  0  0  0  0  0  0  0  0  0  0  0
    1.6589    0.4099   -1.4317 H   0  0  0  0  0  0  0  0  0  0  0  0
    4.1385    0.5765   -1.2351 H   0  0  0  0  0  0  0  0  0  0  0  0
    3.0799    1.6842    1.3999 H   0  0  0  0  0  0  0  0  0  0  0  0
    2.5325    2.3804   -0.1494 H   0  0  0  0  0  0  0  0  0  0  0  0
    1.9907   -2.4768    0.4810 H   0  0  0  0  0  0  0  0  0  0  0  0
    1.7178   -1.8300   -1.8022 H   0  0  0  0  0  0  0  0  0  0  0  0
    4.3493   -1.2569    0.0883 H   0  0  0  0  0  0  0  0  0  0  0  0
    4.3297    3.4327    0.7114 H   0  0  0  0  0  0  0  0  0  0  0  0
  1 13  1  0  0  0  0
  1 35  1  0  0  0  0
  2 14  1  0  0  0  0
  2 36  1  0  0  0  0
  3 15  2  0  0  0  0
  4 16  1  0  0  0  0
  4 37  1  0  0  0  0
  5 17  1  0  0  0  0
  5 38  1  0  0  0  0
  6  7  1  0  0  0  0
  6  8  1  0  0  0  0
  6 12  1  0  0  0  0
  7  9  1  0  0  0  0
  7 18  1  0  0  0  0
  7 19  1  0  0  0  0
  8 10  1  0  0  0  0
  8 20  1  0  0  0  0
  8 21  1  0  0  0  0
  9 11  1  0  0  0  0
  9 22  1  0  0  0  0
  9 23  1  0  0  0  0
 10 11  1  0  0  0  0
 10 24  1  0  0  0  0
 10 25  1  0  0  0  0
 11 26  1  0  0  0  0
 11 27  1  0  0  0  0
 12 15  1  0  0  0  0
 12 28  1  0  0  0  0
 12 29  1  0  0  0  0
 13 14  1  0  0  0  0
 13 15  1  0  0  0  0
 13 30  1  0  0  0  0
 14 16  1  0  0  0  0
 14 31  1  0  0  0  0
 16 17  1  0  0  0  0
 16 32  1  0  0  0  0
 17 33  1  0  0  0  0
 17 34  1  0  0  0  0
M  END
> <PUBCHEM_COMPOUND_CID>
70602053

> <PUBCHEM_CONFORMER_RMSD>
1

> <PUBCHEM_CONFORMER_DIVERSEORDER>
1
98
18
91
63
52
43
21
41
67
83
6
5
88
76
31
50
12
44
15
34
19
48
92
7
8
77
81
2
72
22
69
35
55
71
80
75
62
30
51
66
9
28
36
4
20
27
97
53
33
90
45
94
85
78
87
56
26
10
23
60
79
84
46
39
11
68
38
47
61
74
57
14
17
29
25
86
96
64
3
42
54
73
16
32
49
82
59
70
37
40
89
95
65
93
13
24
58

> <PUBCHEM_MMFF94_PARTIAL_CHARGES>
18
1 -0.68
12 0.33
13 0.34
14 0.28
15 0.45
16 0.28
17 0.28
2 -0.68
3 -0.57
35 0.4
36 0.4
37 0.4
38 0.4
4 -0.68
5 -0.68
6 -0.81
7 0.27
8 0.27

> <PUBCHEM_EFFECTIVE_ROTOR_COUNT>
7.2

> <PUBCHEM_PHARMACOPHORE_FEATURES>
11
1 1 acceptor
1 1 donor
1 2 acceptor
1 2 donor
1 3 acceptor
1 4 acceptor
1 4 donor
1 5 acceptor
1 5 donor
1 6 cation
6 6 7 8 9 10 11 rings

> <PUBCHEM_HEAVY_ATOM_COUNT>
17

> <PUBCHEM_ATOM_DEF_STEREO_COUNT>
3

> <PUBCHEM_ATOM_UDEF_STEREO_COUNT>
0

> <PUBCHEM_BOND_DEF_STEREO_COUNT>
0

> <PUBCHEM_BOND_UDEF_STEREO_COUNT>
0

> <PUBCHEM_ISOTOPIC_ATOM_COUNT>
0

> <PUBCHEM_COMPONENT_COUNT>
1

> <PUBCHEM_CACTVS_TAUTO_COUNT>
10

> <PUBCHEM_CONFORMER_ID>
04354D4500000001

> <PUBCHEM_MMFF94_ENERGY>
20.5367

> <PUBCHEM_FEATURE_SELFOVERLAP>
55.858

> <PUBCHEM_SHAPE_FINGERPRINT>
10465860 71 14045745940841813856
10751810 167 15195568991991298271
11128504 68 17560798853277850877
11132069 177 17894638067124451703
11543360 7 17632293484603796455
12403259 415 18040433269869881828
12616999 72 15482678965710092636
13675066 3 17458060465118800686
13955234 65 18264211313968534259
14123255 52 18335415785508358331
1420 369 8070035466666933600
14251732 14 16414907677927792493
14251757 5 17486474165396240743
15342168 16 18341338880633717669
15375358 24 17313106320159971151
17834072 32 18119531187701837980
17834072 33 17917708033014998357
1813 80 17411347520503642926
18186145 218 18341618087666969654
20279233 1 17603872169893303779
20325693 3 15195290837430755581
204376 136 18408604785812354859
20621476 91 17096660988037944457
20645477 56 18333733532797138526
21503847 285 18200605687050376825
21728266 224 14635156776232615689
21864079 5 18271532979183005369
22079108 93 18341339967766469107
22094290 60 15267341808433654993
22854114 59 18041002838615617773
22926399 37 18272086102483231737
22959321 60 17822008722444484529
231179 274 18334572447511069744
23402539 116 17846493708260176254
23402655 69 17632861923050856557
23500284 214 18337393854429928080
23532345 1 18343023276475349182
23559900 14 16516244007613165739
2838139 119 18059291076019957560
4047638 21 18413390943122520084
474 4 18270961349000419184
5104073 3 18261388996478965330
633830 44 18129952174151717951
76465 3 11530757141217778465
90127 26 18339089181454483949

> <PUBCHEM_SHAPE_MULTIPOLES>
315.52
10.32
1.78
1.25
2.76
0.27
0.07
5.18
-0.6
-2.42
-0.23
0.79
-0.1
0.44

> <PUBCHEM_SHAPE_SELFOVERLAP>
617.832

> <PUBCHEM_SHAPE_VOLUME>
188.7

> <PUBCHEM_COORDINATE_TYPE>
2
5
10