71777425
  -OEChem-05042113263D

 38 37  0     1  0  0  0  0  0999 V2000
   -2.8461   -0.5865   -1.5679 O   0  0  0  0  0  0  0  0  0  0  0  0
   -3.2365    2.1367   -0.6197 O   0  0  0  0  0  0  0  0  0  0  0  0
   -4.4251   -0.1763    1.6967 O   0  0  0  0  0  0  0  0  0  0  0  0
   -0.7357    2.1582   -1.4823 O   0  0  0  0  0  0  0  0  0  0  0  0
   -4.1937   -2.8260    0.6871 O   0  0  0  0  0  0  0  0  0  0  0  0
    3.2880   -0.1614    2.2425 O   0  0  0  0  0  0  0  0  0  0  0  0
    2.8418    1.9291    1.4875 O   0  0  0  0  0  0  0  0  0  0  0  0
    5.5237   -1.0814    0.1252 O   0  0  0  0  0  0  0  0  0  0  0  0
    1.3954    0.8108   -0.5804 N   0  0  0  0  0  0  0  0  0  0  0  0
    4.2513   -2.3433   -1.3169 N   0  0  0  0  0  0  0  0  0  0  0  0
   -2.9089   -0.2332   -0.1797 C   0  0  1  0  0  0  0  0  0  0  0  0
   -2.3740    1.1942   -0.0006 C   0  0  1  0  0  0  0  0  0  0  0  0
   -4.3640   -0.4279    0.2876 C   0  0  1  0  0  0  0  0  0  0  0  0
   -0.9633    1.3687   -0.5647 C   0  0  0  0  0  0  0  0  0  0  0  0
    0.1248    0.5205    0.0685 C   0  0  0  0  0  0  0  0  0  0  0  0
    2.4721    0.0233    0.0052 C   0  0  1  0  0  0  0  0  0  0  0  0
   -4.9461   -1.8163    0.0255 C   0  0  0  0  0  0  0  0  0  0  0  0
    3.6551   -0.0230   -0.9641 C   0  0  0  0  0  0  0  0  0  0  0  0
    2.8680    0.7197    1.2969 C   0  0  0  0  0  0  0  0  0  0  0  0
    4.5731   -1.1859   -0.6465 C   0  0  0  0  0  0  0  0  0  0  0  0
   -2.2699   -0.9341    0.3694 H   0  0  0  0  0  0  0  0  0  0  0  0
   -2.3271    1.4571    1.0614 H   0  0  0  0  0  0  0  0  0  0  0  0
   -5.0206    0.2940   -0.2129 H   0  0  0  0  0  0  0  0  0  0  0  0
   -0.1297   -0.5349   -0.0645 H   0  0  0  0  0  0  0  0  0  0  0  0
    0.1526    0.7636    1.1356 H   0  0  0  0  0  0  0  0  0  0  0  0
    2.1267   -0.9943    0.2283 H   0  0  0  0  0  0  0  0  0  0  0  0
    1.3069    0.5879   -1.5721 H   0  0  0  0  0  0  0  0  0  0  0  0
   -4.9679   -2.0411   -1.0453 H   0  0  0  0  0  0  0  0  0  0  0  0
   -5.9686   -1.8683    0.4148 H   0  0  0  0  0  0  0  0  0  0  0  0
    3.3155   -0.1384   -2.0018 H   0  0  0  0  0  0  0  0  0  0  0  0
    4.2481    0.8993   -0.9275 H   0  0  0  0  0  0  0  0  0  0  0  0
   -1.9090   -0.6465   -1.8184 H   0  0  0  0  0  0  0  0  0  0  0  0
   -3.3428    1.8735   -1.5499 H   0  0  0  0  0  0  0  0  0  0  0  0
   -4.2925    0.7770    1.8320 H   0  0  0  0  0  0  0  0  0  0  0  0
   -4.6194   -3.6769    0.4861 H   0  0  0  0  0  0  0  0  0  0  0  0
    3.5523    0.2912    3.0717 H   0  0  0  0  0  0  0  0  0  0  0  0
    3.4585   -2.4053   -1.9475 H   0  0  0  0  0  0  0  0  0  0  0  0
    4.7990   -3.1880   -1.1909 H   0  0  0  0  0  0  0  0  0  0  0  0
  1 11  1  0  0  0  0
  1 32  1  0  0  0  0
  2 12  1  0  0  0  0
  2 33  1  0  0  0  0
  3 13  1  0  0  0  0
  3 34  1  0  0  0  0
  4 14  2  0  0  0  0
  5 17  1  0  0  0  0
  5 35  1  0  0  0  0
  6 19  1  0  0  0  0
  6 36  1  0  0  0  0
  7 19  2  0  0  0  0
  8 20  2  0  0  0  0
  9 15  1  0  0  0  0
  9 16  1  0  0  0  0
  9 27  1  0  0  0  0
 10 20  1  0  0  0  0
 10 37  1  0  0  0  0
 10 38  1  0  0  0  0
 11 12  1  0  0  0  0
 11 13  1  0  0  0  0
 11 21  1  0  0  0  0
 12 14  1  0  0  0  0
 12 22  1  0  0  0  0
 13 17  1  0  0  0  0
 13 23  1  0  0  0  0
 14 15  1  0  0  0  0
 15 24  1  0  0  0  0
 15 25  1  0  0  0  0
 16 18  1  0  0  0  0
 16 19  1  0  0  0  0
 16 26  1  0  0  0  0
 17 28  1  0  0  0  0
 17 29  1  0  0  0  0
 18 20  1  0  0  0  0
 18 30  1  0  0  0  0
 18 31  1  0  0  0  0
M  END
> <PUBCHEM_COMPOUND_CID>
71777425

> <PUBCHEM_CONFORMER_RMSD>
1

> <PUBCHEM_CONFORMER_DIVERSEORDER>
2
25
52
17
67
46
53
57
38
41
43
44
19
62
48
9
42
30
13
65
51
36
66
23
68
28
8
4
64
50
11
60
27
40
47
20
15
33
34
6
58
14
39
32
24
59
31
22
7
63
29
35
61
16
5
49
10
18
12
26
54
56
3
21
1
37
45
55

> <PUBCHEM_MMFF94_PARTIAL_CHARGES>
28
1 -0.68
10 -0.8
11 0.28
12 0.34
13 0.28
14 0.45
15 0.33
16 0.33
17 0.28
18 0.06
19 0.66
2 -0.68
20 0.57
27 0.36
3 -0.68
32 0.4
33 0.4
34 0.4
35 0.4
36 0.5
37 0.37
38 0.37
4 -0.57
5 -0.68
6 -0.65
7 -0.57
8 -0.57
9 -0.9

> <PUBCHEM_EFFECTIVE_ROTOR_COUNT>
10

> <PUBCHEM_PHARMACOPHORE_FEATURES>
16
1 1 acceptor
1 1 donor
1 10 donor
1 2 acceptor
1 2 donor
1 3 acceptor
1 3 donor
1 4 acceptor
1 5 acceptor
1 5 donor
1 6 acceptor
1 7 acceptor
1 8 acceptor
1 9 cation
1 9 donor
3 6 7 19 anion

> <PUBCHEM_HEAVY_ATOM_COUNT>
20

> <PUBCHEM_ATOM_DEF_STEREO_COUNT>
4

> <PUBCHEM_ATOM_UDEF_STEREO_COUNT>
0

> <PUBCHEM_BOND_DEF_STEREO_COUNT>
0

> <PUBCHEM_BOND_UDEF_STEREO_COUNT>
0

> <PUBCHEM_ISOTOPIC_ATOM_COUNT>
0

> <PUBCHEM_COMPONENT_COUNT>
1

> <PUBCHEM_CACTVS_TAUTO_COUNT>
30

> <PUBCHEM_CONFORMER_ID>
04473C9100000002

> <PUBCHEM_MMFF94_ENERGY>
32.2734

> <PUBCHEM_FEATURE_SELFOVERLAP>
81.284

> <PUBCHEM_SHAPE_FINGERPRINT>
11370993 144 17846502508700971961
11405975 8 17917712374857890457
11543360 7 13984661468791584177
11545043 162 18341330002809534328
11552529 35 16843868983487027831
11796584 16 18193275187810610886
12553582 1 17749392602643776121
12596602 18 15482667983252421838
12616971 3 15068897504129474728
12633257 1 16702024196649049335
12892183 10 17703513306679172499
13103583 49 17560538221671822667
13911882 115 18339926042830955634
14123255 352 9295280630166943430
1420 369 18334010635824260795
14251732 14 18261409853093504942
14251740 57 18266464393597745823
14251751 18 18411419492972939722
14251757 5 16299248945399549531
14252887 29 18339357573586414256
14950920 106 17131558327141124643
15342816 4 17749382702311836676
15537594 2 17603589625554334539
15880784 105 18130227159353885859
1813 80 18187363281043896869
18222031 100 18187362168631276349
18785283 64 18129370653192765024
193927 3 18260840310106651943
20281475 54 18410300250038409789
20621476 21 18271257031977196678
21054139 6 17458344156847496578
21065201 7 18336818697995075496
23402539 116 17458911435895661756
23402655 69 12829479359661688999
23503953 91 15482670186490847830
23559900 14 18410289198771331949
312425 54 17917721231576638987
316301 35 18410289212183838962
351380 3 17822017527422866811
4028521 119 8142094160543257623
5104073 3 18273213080020535032
57096353 35 16298391236240863468
6049 1 18271235045796884816
621550 5 18342742871473685060
7495541 125 18412545401749096860
7970288 3 18260551142622773755

> <PUBCHEM_SHAPE_MULTIPOLES>
354.67
12.05
2.29
1.51
0.84
0.6
-0.49
7.8
-1.33
-1.07
0.34
0.74
-0.19
1.8

> <PUBCHEM_SHAPE_SELFOVERLAP>
694.209

> <PUBCHEM_SHAPE_VOLUME>
210.8

> <PUBCHEM_COORDINATE_TYPE>
2
5
10