87772277
  -OEChem-05042113263D

 34 33  0     1  0  0  0  0  0999 V2000
    2.5512    1.7819    0.1071 P   0  0  0  0  0  0  0  0  0  0  0  0
   -4.0154    0.5609    0.5414 P   0  0  0  0  0  0  0  0  0  0  0  0
    2.3946    0.2062   -0.2069 O   0  0  0  0  0  0  0  0  0  0  0  0
    0.3513   -2.6731    0.8024 O   0  0  0  0  0  0  0  0  0  0  0  0
    1.2329   -1.3243   -2.4244 O   0  0  0  0  0  0  0  0  0  0  0  0
    3.5154   -1.6327    1.5457 O   0  0  0  0  0  0  0  0  0  0  0  0
   -2.7162    0.5105   -0.4263 O   0  0  0  0  0  0  0  0  0  0  0  0
   -0.6250    0.5091   -2.0784 O   0  0  0  0  0  0  0  0  0  0  0  0
    3.4283    2.3057   -1.1464 O   0  0  0  0  0  0  0  0  0  0  0  0
    1.0801    2.3835   -0.1911 O   0  0  0  0  0  0  0  0  0  0  0  0
    3.1170    2.1102    1.4578 O   0  0  0  0  0  0  0  0  0  0  0  0
   -3.4040    0.3062    2.0166 O   0  0  0  0  0  0  0  0  0  0  0  0
   -4.7725   -0.8285    0.2075 O   0  0  0  0  0  0  0  0  0  0  0  0
   -4.8608    1.7929    0.4010 O   0  0  0  0  0  0  0  0  0  0  0  0
    1.0926   -1.8428   -0.0867 C   0  0  2  0  0  0  0  0  0  0  0  0
    1.5565   -0.5710    0.6476 C   0  0  1  0  0  0  0  0  0  0  0  0
    0.3047   -1.6068   -1.3844 C   0  0  1  0  0  0  0  0  0  0  0  0
    2.3496   -0.9016    1.9123 C   0  0  0  0  0  0  0  0  0  0  0  0
   -0.7153   -0.4704   -1.3366 C   0  0  0  0  0  0  0  0  0  0  0  0
   -1.8651   -0.6159   -0.3583 C   0  0  0  0  0  0  0  0  0  0  0  0
    1.9897   -2.4136   -0.3622 H   0  0  0  0  0  0  0  0  0  0  0  0
    0.6890    0.0233    0.9524 H   0  0  0  0  0  0  0  0  0  0  0  0
   -0.2380   -2.5118   -1.6790 H   0  0  0  0  0  0  0  0  0  0  0  0
    2.6706   -0.0087    2.4496 H   0  0  0  0  0  0  0  0  0  0  0  0
    1.7589   -1.5118    2.6030 H   0  0  0  0  0  0  0  0  0  0  0  0
    0.1380   -3.4960    0.3304 H   0  0  0  0  0  0  0  0  0  0  0  0
   -2.4249   -1.5168   -0.6248 H   0  0  0  0  0  0  0  0  0  0  0  0
   -1.4713   -0.7071    0.6553 H   0  0  0  0  0  0  0  0  0  0  0  0
    1.7463   -0.5405   -2.1642 H   0  0  0  0  0  0  0  0  0  0  0  0
    3.9929   -1.8380    2.3675 H   0  0  0  0  0  0  0  0  0  0  0  0
    3.7452    3.2340   -1.1488 H   0  0  0  0  0  0  0  0  0  0  0  0
    0.9096    3.3323   -0.0101 H   0  0  0  0  0  0  0  0  0  0  0  0
   -3.9999    0.3636    2.7937 H   0  0  0  0  0  0  0  0  0  0  0  0
   -5.6523   -0.9974    0.6068 H   0  0  0  0  0  0  0  0  0  0  0  0
  1  3  1  0  0  0  0
  1  9  1  0  0  0  0
  1 10  1  0  0  0  0
  1 11  2  0  0  0  0
  2  7  1  0  0  0  0
  2 12  1  0  0  0  0
  2 13  1  0  0  0  0
  2 14  2  0  0  0  0
  3 16  1  0  0  0  0
  4 15  1  0  0  0  0
  4 26  1  0  0  0  0
  5 17  1  0  0  0  0
  5 29  1  0  0  0  0
  6 18  1  0  0  0  0
  6 30  1  0  0  0  0
  7 20  1  0  0  0  0
  8 19  2  0  0  0  0
  9 31  1  0  0  0  0
 10 32  1  0  0  0  0
 12 33  1  0  0  0  0
 13 34  1  0  0  0  0
 15 16  1  0  0  0  0
 15 17  1  0  0  0  0
 15 21  1  0  0  0  0
 16 18  1  0  0  0  0
 16 22  1  0  0  0  0
 17 19  1  0  0  0  0
 17 23  1  0  0  0  0
 18 24  1  0  0  0  0
 18 25  1  0  0  0  0
 19 20  1  0  0  0  0
 20 27  1  0  0  0  0
 20 28  1  0  0  0  0
M  END
> <PUBCHEM_COMPOUND_CID>
87772277

> <PUBCHEM_CONFORMER_RMSD>
0.8

> <PUBCHEM_CONFORMER_DIVERSEORDER>
1
107
79
70
24
59
69
93
18
52
10
108
83
19
38
31
15
73
42
76
77
26
97
75
60
74
65
56
103
98
81
85
51
36
90
95
33
30
27
45
58
49
91
44
17
102
106
39
64
94
21
68
35
9
7
105
29
14
11
100
34
5
8
87
72
104
101
92
54
13
71
48
57
25
99
3
32
16
41
88
37
66
22
80
40
6
43
96
47
23
89
63
53
46
78
50
2
28
86
61
67
82
84
62
20
55
4
12

> <PUBCHEM_MMFF94_PARTIAL_CHARGES>
27
1 1.51
10 -0.77
11 -0.7
12 -0.77
13 -0.77
14 -0.7
15 0.28
16 0.28
17 0.34
18 0.28
19 0.45
2 1.51
20 0.34
26 0.4
29 0.4
3 -0.55
30 0.4
31 0.5
32 0.5
33 0.5
34 0.5
4 -0.68
5 -0.68
6 -0.68
7 -0.55
8 -0.57
9 -0.77

> <PUBCHEM_EFFECTIVE_ROTOR_COUNT>
9

> <PUBCHEM_PHARMACOPHORE_FEATURES>
15
1 10 acceptor
1 11 acceptor
1 12 acceptor
1 13 acceptor
1 14 acceptor
1 4 acceptor
1 4 donor
1 5 acceptor
1 5 donor
1 6 acceptor
1 6 donor
1 8 acceptor
1 9 acceptor
4 1 9 10 11 anion
4 2 12 13 14 anion

> <PUBCHEM_HEAVY_ATOM_COUNT>
20

> <PUBCHEM_ATOM_DEF_STEREO_COUNT>
3

> <PUBCHEM_ATOM_UDEF_STEREO_COUNT>
0

> <PUBCHEM_BOND_DEF_STEREO_COUNT>
0

> <PUBCHEM_BOND_UDEF_STEREO_COUNT>
0

> <PUBCHEM_ISOTOPIC_ATOM_COUNT>
0

> <PUBCHEM_COMPONENT_COUNT>
1

> <PUBCHEM_CACTVS_TAUTO_COUNT>
7

> <PUBCHEM_CONFORMER_ID>
053B4C7500000001

> <PUBCHEM_MMFF94_ENERGY>
-34.3541

> <PUBCHEM_FEATURE_SELFOVERLAP>
76.215

> <PUBCHEM_SHAPE_FINGERPRINT>
10366900 7 17894916179078615619
10382601 240 18334850654281743688
10498660 4 15984807230523470857
10980938 120 18410009957272294245
12633257 1 18261105219526377731
14123255 52 18059852930202544521
15534591 1 18055349399499924308
16945 1 17983542305451449710
17357990 137 18059844099955031454
18785283 64 17386000720093717096
20723712 36 18201425940326365258
21503847 285 18270408191461240749
21524375 3 18200312250605265870
23559900 14 17773044055698826119
251288 83 17894911853946269755
2637199 183 18199481011488795060
31174 14 17822280275993896502
3286 77 17894904088318383683
3797600 57 18058169604007593195
427121 178 18041576830676808058
474 4 18059577949695913487
568465 68 17534036624267480938
6438754 60 13109594184480703869

> <PUBCHEM_SHAPE_MULTIPOLES>
348.86
7.49
2.6
1.94
9.14
0.56
0.22
3.7
-3.17
-2.11
-0.02
-0.8
-0.48
-0.82

> <PUBCHEM_SHAPE_SELFOVERLAP>
653.935

> <PUBCHEM_SHAPE_VOLUME>
217.1

> <PUBCHEM_COORDINATE_TYPE>
2
5
10