90477747
  -OEChem-05042113263D

 32 33  0     1  0  0  0  0  0999 V2000
   -0.2226    0.0625    0.9085 O   0  0  0  0  0  0  0  0  0  0  0  0
    1.3879   -0.3665   -0.7613 O   0  0  0  0  0  0  0  0  0  0  0  0
    2.2813   -1.4807    1.1017 O   0  0  0  0  0  0  0  0  0  0  0  0
    2.0944    2.2841   -0.7105 O   0  0  0  0  0  0  0  0  0  0  0  0
   -0.8030    3.3450   -0.3263 O   0  0  0  0  0  0  0  0  0  0  0  0
   -2.9748   -0.5134    0.5252 N   0  0  0  0  0  0  0  0  0  0  0  0
   -3.9275   -1.1361    0.0194 N   0  3  0  0  0  0  0  0  0  0  0  0
   -4.8008   -1.7087   -0.4393 N   0  5  0  0  0  0  0  0  0  0  0  0
    1.0970    0.3778    0.4282 C   0  0  1  0  0  0  0  0  0  0  0  0
    1.0627    1.8706    0.1622 C   0  0  2  0  0  0  0  0  0  0  0  0
   -0.3139    2.0219   -0.4488 C   0  0  1  0  0  0  0  0  0  0  0  0
   -1.1341    1.0607    0.4064 C   0  0  1  0  0  0  0  0  0  0  0  0
    2.1491   -0.0883    1.4034 C   0  0  0  0  0  0  0  0  0  0  0  0
    2.0000   -1.5808   -0.3023 C   0  0  0  0  0  0  0  0  0  0  0  0
   -2.2451    0.3781   -0.3730 C   0  0  0  0  0  0  0  0  0  0  0  0
    1.0448   -2.7451   -0.5296 C   0  0  0  0  0  0  0  0  0  0  0  0
    3.3046   -1.7813   -1.0640 C   0  0  0  0  0  0  0  0  0  0  0  0
    1.1342    2.4527    1.0895 H   0  0  0  0  0  0  0  0  0  0  0  0
   -0.3130    1.7548   -1.5115 H   0  0  0  0  0  0  0  0  0  0  0  0
   -1.5617    1.5699    1.2794 H   0  0  0  0  0  0  0  0  0  0  0  0
    3.1232    0.3818    1.2335 H   0  0  0  0  0  0  0  0  0  0  0  0
    1.8607    0.0293    2.4514 H   0  0  0  0  0  0  0  0  0  0  0  0
   -1.8197   -0.2117   -1.1948 H   0  0  0  0  0  0  0  0  0  0  0  0
   -2.9231    1.1278   -0.7979 H   0  0  0  0  0  0  0  0  0  0  0  0
    0.1135   -2.5954    0.0283 H   0  0  0  0  0  0  0  0  0  0  0  0
    1.4788   -3.6889   -0.1833 H   0  0  0  0  0  0  0  0  0  0  0  0
    0.7759   -2.8380   -1.5870 H   0  0  0  0  0  0  0  0  0  0  0  0
    3.9799   -0.9334   -0.9010 H   0  0  0  0  0  0  0  0  0  0  0  0
    3.1288   -1.8498   -2.1427 H   0  0  0  0  0  0  0  0  0  0  0  0
    3.8282   -2.6815   -0.7259 H   0  0  0  0  0  0  0  0  0  0  0  0
    2.9431    2.1019   -0.2734 H   0  0  0  0  0  0  0  0  0  0  0  0
   -0.7785    3.5968    0.6124 H   0  0  0  0  0  0  0  0  0  0  0  0
  1  9  1  0  0  0  0
  1 12  1  0  0  0  0
  2  9  1  0  0  0  0
  2 14  1  0  0  0  0
  3 13  1  0  0  0  0
  3 14  1  0  0  0  0
  4 10  1  0  0  0  0
  4 31  1  0  0  0  0
  5 11  1  0  0  0  0
  5 32  1  0  0  0  0
  6  7  2  0  0  0  0
  6 15  1  0  0  0  0
  7  8  2  0  0  0  0
  9 10  1  0  0  0  0
  9 13  1  0  0  0  0
 10 11  1  0  0  0  0
 10 18  1  0  0  0  0
 11 12  1  0  0  0  0
 11 19  1  0  0  0  0
 12 15  1  0  0  0  0
 12 20  1  0  0  0  0
 13 21  1  0  0  0  0
 13 22  1  0  0  0  0
 14 16  1  0  0  0  0
 14 17  1  0  0  0  0
 15 23  1  0  0  0  0
 15 24  1  0  0  0  0
 16 25  1  0  0  0  0
 16 26  1  0  0  0  0
 16 27  1  0  0  0  0
 17 28  1  0  0  0  0
 17 29  1  0  0  0  0
 17 30  1  0  0  0  0
M  CHG  2   7   1   8  -1
M  END
> <PUBCHEM_COMPOUND_CID>
90477747

> <PUBCHEM_CONFORMER_RMSD>
0.6

> <PUBCHEM_CONFORMER_DIVERSEORDER>
1
26
8
17
21
9
2
3
19
5
15
6
14
18
11
25
30
12
16
29
27
20
10
28
4
22
31
32
13
7
24
23

> <PUBCHEM_MMFF94_PARTIAL_CHARGES>
17
1 -0.56
10 0.28
11 0.28
12 0.28
13 0.28
14 0.56
15 0.25
2 -0.56
3 -0.56
31 0.4
32 0.4
4 -0.68
5 -0.68
6 -0.56
7 0.69
8 -0.37
9 0.56

> <PUBCHEM_EFFECTIVE_ROTOR_COUNT>
3.6

> <PUBCHEM_PHARMACOPHORE_FEATURES>
10
1 1 acceptor
1 2 acceptor
1 3 acceptor
1 4 acceptor
1 4 donor
1 5 acceptor
1 5 donor
3 14 16 17 hydrophobe
5 1 9 10 11 12 rings
5 2 3 9 13 14 rings

> <PUBCHEM_HEAVY_ATOM_COUNT>
17

> <PUBCHEM_ATOM_DEF_STEREO_COUNT>
4

> <PUBCHEM_ATOM_UDEF_STEREO_COUNT>
0

> <PUBCHEM_BOND_DEF_STEREO_COUNT>
0

> <PUBCHEM_BOND_UDEF_STEREO_COUNT>
0

> <PUBCHEM_ISOTOPIC_ATOM_COUNT>
0

> <PUBCHEM_COMPONENT_COUNT>
1

> <PUBCHEM_CACTVS_TAUTO_COUNT>
1

> <PUBCHEM_CONFORMER_ID>
056494B300000001

> <PUBCHEM_MMFF94_ENERGY>
44.4205

> <PUBCHEM_FEATURE_SELFOVERLAP>
50.865

> <PUBCHEM_SHAPE_FINGERPRINT>
11322862 65 17545044805951546493
116883 192 18338509717304479917
12138202 97 17542507132856144180
12553582 1 18335990766108664443
13083527 12 18188469359639686712
13464513 79 18343584070302966646
13571099 52 11242554235993337938
13836976 161 17902791100478954125
14178342 30 18196926673941123787
14251717 144 18339920541025646703
16945 1 17548976659622196168
17492 54 18118146833794798014
20645477 70 18336259167568896735
20708731 107 18340492265058800279
20871998 22 18411979144053458393
20871999 31 18119256064432333013
21452121 199 18335973207870602928
2255824 54 17978510068301159957
23419403 2 17606645176794347516
23559900 14 17476633180093570954
23598291 2 18271823319224948081
2748010 2 18126548038786183276
3060560 45 18122345954247419565
7364860 26 18341333412950263833
81228 2 18120085083626549681
81539 233 17898007086220410285
8272917 22 18339367491251157775

> <PUBCHEM_SHAPE_MULTIPOLES>
305.56
5.56
3.18
1.03
6.15
1.05
-0.18
-5.02
0.6
0.11
0.9
-0.66
-0.08
0.21

> <PUBCHEM_SHAPE_SELFOVERLAP>
634.265

> <PUBCHEM_SHAPE_VOLUME>
175.7

> <PUBCHEM_COORDINATE_TYPE>
2
5
10