9577100
  -OEChem-05042113263D

 41 41  0     1  0  0  0  0  0999 V2000
    4.2420   -0.8291    1.0273 O   0  0  0  0  0  0  0  0  0  0  0  0
    3.1955   -1.4421   -1.5348 O   0  0  0  0  0  0  0  0  0  0  0  0
    3.1020    2.0567   -0.9049 O   0  0  0  0  0  0  0  0  0  0  0  0
    5.6509    2.9249   -0.1590 O   0  0  0  0  0  0  0  0  0  0  0  0
    2.1662   -4.0634   -0.7316 O   0  0  0  0  0  0  0  0  0  0  0  0
   -1.7402    3.2231   -0.0267 O   0  5  0  0  0  0  0  0  0  0  0  0
    0.0532    1.9908    0.2633 O   0  0  0  0  0  0  0  0  0  0  0  0
   -6.3026   -0.9676   -0.1813 O   0  5  0  0  0  0  0  0  0  0  0  0
   -6.0804    1.2112   -0.3322 O   0  0  0  0  0  0  0  0  0  0  0  0
    0.4934   -1.7063    0.6646 N   0  0  0  0  0  0  0  0  0  0  0  0
   -0.0313   -0.4875    0.4516 N   0  0  0  0  0  0  0  0  0  0  0  0
   -1.1863    2.1085    0.1207 N   0  3  0  0  0  0  0  0  0  0  0  0
   -5.5902    0.0652   -0.1881 N   0  3  0  0  0  0  0  0  0  0  0  0
    3.2872    0.0258    0.3959 C   0  0  2  0  0  0  0  0  0  0  0  0
    2.4026   -0.8180   -0.5358 C   0  0  2  0  0  0  0  0  0  0  0  0
    4.0465    1.1479   -0.3351 C   0  0  2  0  0  0  0  0  0  0  0  0
    1.6990   -1.9370    0.2360 C   0  0  0  0  0  0  0  0  0  0  0  0
    4.9694    1.9298    0.5984 C   0  0  0  0  0  0  0  0  0  0  0  0
    2.4494   -3.2474    0.3860 C   0  0  0  0  0  0  0  0  0  0  0  0
   -1.4176   -0.3290    0.2899 C   0  0  0  0  0  0  0  0  0  0  0  0
   -1.9929    0.9361    0.1269 C   0  0  0  0  0  0  0  0  0  0  0  0
   -2.2389   -1.4615    0.2929 C   0  0  0  0  0  0  0  0  0  0  0  0
   -3.3726    1.0667   -0.0313 C   0  0  0  0  0  0  0  0  0  0  0  0
   -4.1854   -0.0669   -0.0274 C   0  0  0  0  0  0  0  0  0  0  0  0
   -3.6187   -1.3310    0.1346 C   0  0  0  0  0  0  0  0  0  0  0  0
    2.6582    0.4559    1.1848 H   0  0  0  0  0  0  0  0  0  0  0  0
    1.7018   -0.1821   -1.0826 H   0  0  0  0  0  0  0  0  0  0  0  0
    4.6423    0.7397   -1.1594 H   0  0  0  0  0  0  0  0  0  0  0  0
    4.3994    2.4469    1.3766 H   0  0  0  0  0  0  0  0  0  0  0  0
    5.7234    1.2955    1.0723 H   0  0  0  0  0  0  0  0  0  0  0  0
    2.1137   -3.7571    1.2940 H   0  0  0  0  0  0  0  0  0  0  0  0
    3.5278   -3.0992    0.4503 H   0  0  0  0  0  0  0  0  0  0  0  0
    4.5478   -0.3856    1.8364 H   0  0  0  0  0  0  0  0  0  0  0  0
    2.5914   -1.8624   -2.1709 H   0  0  0  0  0  0  0  0  0  0  0  0
    2.5626    2.4187   -0.1812 H   0  0  0  0  0  0  0  0  0  0  0  0
    0.5509    0.3332    0.5310 H   0  0  0  0  0  0  0  0  0  0  0  0
    6.1835    2.4675   -0.8318 H   0  0  0  0  0  0  0  0  0  0  0  0
   -1.8366   -2.4639    0.4145 H   0  0  0  0  0  0  0  0  0  0  0  0
   -3.8189    2.0504   -0.1578 H   0  0  0  0  0  0  0  0  0  0  0  0
   -4.2210   -2.2359    0.1423 H   0  0  0  0  0  0  0  0  0  0  0  0
    1.2198   -4.2856   -0.7011 H   0  0  0  0  0  0  0  0  0  0  0  0
  1 14  1  0  0  0  0
  1 33  1  0  0  0  0
  2 15  1  0  0  0  0
  2 34  1  0  0  0  0
  3 16  1  0  0  0  0
  3 35  1  0  0  0  0
  4 18  1  0  0  0  0
  4 37  1  0  0  0  0
  5 19  1  0  0  0  0
  5 41  1  0  0  0  0
  6 12  1  0  0  0  0
  7 12  2  0  0  0  0
  8 13  1  0  0  0  0
  9 13  2  0  0  0  0
 10 11  1  0  0  0  0
 10 17  2  0  0  0  0
 11 20  1  0  0  0  0
 11 36  1  0  0  0  0
 12 21  1  0  0  0  0
 13 24  1  0  0  0  0
 14 15  1  0  0  0  0
 14 16  1  0  0  0  0
 14 26  1  0  0  0  0
 15 17  1  0  0  0  0
 15 27  1  0  0  0  0
 16 18  1  0  0  0  0
 16 28  1  0  0  0  0
 17 19  1  0  0  0  0
 18 29  1  0  0  0  0
 18 30  1  0  0  0  0
 19 31  1  0  0  0  0
 19 32  1  0  0  0  0
 20 21  2  0  0  0  0
 20 22  1  0  0  0  0
 21 23  1  0  0  0  0
 22 25  2  0  0  0  0
 22 38  1  0  0  0  0
 23 24  2  0  0  0  0
 23 39  1  0  0  0  0
 24 25  1  0  0  0  0
 25 40  1  0  0  0  0
M  CHG  4   6  -1   8  -1  12   1  13   1
M  END
> <PUBCHEM_COMPOUND_CID>
9577100

> <PUBCHEM_CONFORMER_RMSD>
1

> <PUBCHEM_CONFORMER_DIVERSEORDER>
1
9
43
17
29
12
40
22
23
31
32
7
14
33
10
5
37
26
16
34
11
35
20
13
39
18
28
36
3
8
24
41
2
15
19
6
38
21
30
25
27
42
4

> <PUBCHEM_MMFF94_PARTIAL_CHARGES>
34
1 -0.68
10 -0.49
11 -0.46
12 0.91
13 0.91
14 0.28
15 0.34
16 0.28
17 0.33
18 0.28
19 0.34
2 -0.68
20 0.1
21 0.13
22 -0.15
23 -0.15
24 0.13
25 -0.15
3 -0.68
33 0.4
34 0.4
35 0.4
36 0.4
37 0.4
38 0.15
39 0.15
4 -0.68
40 0.15
41 0.4
5 -0.68
6 -0.52
7 -0.52
8 -0.52
9 -0.52

> <PUBCHEM_EFFECTIVE_ROTOR_COUNT>
9

> <PUBCHEM_PHARMACOPHORE_FEATURES>
19
1 1 acceptor
1 1 donor
1 10 acceptor
1 11 donor
1 2 acceptor
1 2 donor
1 3 acceptor
1 3 donor
1 4 acceptor
1 4 donor
1 5 acceptor
1 5 donor
1 6 acceptor
1 6 anion
1 7 acceptor
1 8 acceptor
1 8 anion
1 9 acceptor
6 20 21 22 23 24 25 rings

> <PUBCHEM_HEAVY_ATOM_COUNT>
25

> <PUBCHEM_ATOM_DEF_STEREO_COUNT>
3

> <PUBCHEM_ATOM_UDEF_STEREO_COUNT>
0

> <PUBCHEM_BOND_DEF_STEREO_COUNT>
1

> <PUBCHEM_BOND_UDEF_STEREO_COUNT>
0

> <PUBCHEM_ISOTOPIC_ATOM_COUNT>
0

> <PUBCHEM_COMPONENT_COUNT>
1

> <PUBCHEM_CACTVS_TAUTO_COUNT>
1

> <PUBCHEM_CONFORMER_ID>
0092228C00000001

> <PUBCHEM_MMFF94_ENERGY>
87.1405

> <PUBCHEM_FEATURE_SELFOVERLAP>
96.618

> <PUBCHEM_SHAPE_FINGERPRINT>
10090160 65 18334850649501245742
10498660 4 18409455807843739566
10906281 52 18262249909699024681
11578080 2 17314491648322468565
12788726 201 17346323652840459641
12838862 33 18266159803365939628
13402501 40 18338516451523153656
13533116 47 17313657153599552050
14528608 73 18412545426906880087
14790565 3 18266744769084200609
15196674 1 18409166627479552129
15840311 113 18191595147461521301
15927050 60 17259345990503030268
15961568 22 18335704974753501788
17492 89 18195243313245002339
20715895 44 18260263062054530869
20775438 99 17467307225007368869
21618674 68 18340771455176342950
21792934 111 18265886961721283281
22113638 7 18046908466087989484
22149856 69 18266199326245237931
23352939 185 18202003231418499897
23557571 272 18059008372201805434
23558518 356 18050572846105781489
23559900 14 18195522597640380746
239999 70 18201725016121701478
3004659 81 18260266321886774346
312423 11 18057894541063679419
34797466 226 17775013422378077429
34934 24 18412259566942802367
350125 39 18409164399209034074
3680242 22 18260546697373125713
46194498 28 17988372468558719654
474 4 18260552259619329124
5104073 3 18260834748514362131
5486654 2 18267589181535456716
59755656 215 18410580578675480054
6327066 14 18193839469415189484
67856867 119 18335977584727549402
9709674 26 18265619788226506379
9981440 41 18261675995079342514

> <PUBCHEM_SHAPE_MULTIPOLES>
441.74
12.43
3.67
0.82
8.08
1.01
-0.1
-4.79
-0.75
-4.13
-0.3
-0.67
0.2
0.23

> <PUBCHEM_SHAPE_SELFOVERLAP>
912.146

> <PUBCHEM_SHAPE_VOLUME>
251.6

> <PUBCHEM_COORDINATE_TYPE>
2
5
10